@<TRIPOS>MOLECULE
*****
 20 21 0 0 0
SMALL
GASTEIGER

@<TRIPOS>ATOM
      1 CL         14.0680   -1.5830   21.0150 Cl      1  UNL1       -0.0823
      2 C          13.0140   -0.6690   22.0570 C.ar    1  UNL1        0.0574
      3 C          13.5590    0.2760   22.9050 C.ar    1  UNL1        0.0114
      4 C          12.7280    0.9030   23.8200 C.ar    1  UNL1        0.0006
      5 C          11.3760    0.6000   23.8590 C.ar    1  UNL1       -0.0038
      6 C          11.6660   -0.9610   22.0610 C.ar    1  UNL1        0.0076
      7 C          10.8260   -0.3190   22.9680 C.ar    1  UNL1       -0.0137
      8 C           9.3140   -0.5940   22.9240 C.3     1  UNL1        0.0896
      9 C           9.0740   -2.1140   22.9660 C.3     1  UNL1        0.0136
     10 C           8.5670    0.0320   24.1160 C.3     1  UNL1        0.0136
     11 C           8.7280    0.0430   21.6460 C.2     1  UNL1        0.2485
     12 O           9.2090    1.0690   21.1890 O.2     1  UNL1       -0.2727
     13 N           7.6470   -0.5650   21.1050 N.am    1  UNL1       -0.1777
     14 C           6.9100   -0.0470   20.0150 C.ar    1  UNL1        0.0885
     15 C           5.6980    0.6250   20.2560 C.ar    1  UNL1       -0.0034
     16 C           5.1450    0.8020   21.6460 C.3     1  UNL1        0.0325
     17 C           7.3920   -0.1050   18.7090 C.ar    1  UNL1        0.1151
     18 N           6.7830    0.4750   17.6700 N.ar    1  UNL1       -0.2410
     19 C           5.6310    1.1060   17.9100 C.ar    1  UNL1        0.0987
     20 C           5.0550    1.1940   19.1610 C.ar    1  UNL1        0.0177
@<TRIPOS>BOND
     1     2     1    1
     2     3     2   ar
     3     4     3   ar
     4     5     4   ar
     5     6     2   ar
     6     7     6   ar
     7     7     5   ar
     8     8     7    1
     9     8     9    1
    10    10     8    1
    11    11     8    1
    12    12    11    2
    13    13    11   am
    14    14    13    1
    15    15    14   ar
    16    16    15    1
    17    17    14   ar
    18    18    17   ar
    19    19    18   ar
    20    20    19   ar
    21    20    15   ar
