@<TRIPOS>MOLECULE
*****
 18 19 0 0 0
SMALL
GASTEIGER

@<TRIPOS>ATOM
      1 C          24.6120  -17.8080   25.4800 C.2     1  UNL1        0.2604
      2 C          24.0980  -18.8480   24.4730 C.3     1  UNL1        0.0833
      3 C          24.8470  -18.8820   23.1970 C.3     1  UNL1        0.0308
      4 C          24.4510  -20.1030   22.3600 C.3     1  UNL1        0.0955
      5 C          22.2270  -20.0620   23.6440 C.3     1  UNL1        0.0955
      6 C          22.6780  -18.6970   24.1370 C.3     1  UNL1        0.0308
      7 C          22.4420  -21.7370   21.7540 C.2     1  UNL1        0.3275
      8 C          22.5540  -23.4260   19.8810 C.ar    1  UNL1        0.0749
      9 C          22.4610  -23.2510   18.5140 C.ar    1  UNL1        0.0166
     10 C          21.9000  -24.2460   17.7240 C.ar    1  UNL1        0.0013
     11 C          21.4360  -25.4170   18.3130 C.ar    1  UNL1        0.0001
     12 C          21.5320  -25.5920   19.6880 C.ar    1  UNL1        0.0013
     13 C          22.0920  -24.5960   20.4740 C.ar    1  UNL1        0.0166
     14 N          23.8190  -16.6800   25.9560 N.am    1  UNL1       -0.0878
     15 N          23.0480  -20.6620   22.5400 N.am    1  UNL1       -0.2626
     16 N          23.1560  -22.3700   20.6630 N.am    1  UNL1       -0.1622
     17 O          25.6980  -17.9500   25.9220 O.2     1  UNL1       -0.2717
     18 O          21.3360  -22.0910   22.0070 O.2     1  UNL1       -0.2504
@<TRIPOS>BOND
     1     2     1    1
     2     3     2    1
     3     4     3    1
     4     6     5    1
     5     6     2    1
     6     9     8   ar
     7    10     9   ar
     8    11    10   ar
     9    12    11   ar
    10    13    12   ar
    11    13     8   ar
    12    14     1   am
    13    15     7   am
    14    15     5    1
    15    15     4    1
    16    16     8    1
    17    16     7   am
    18    17     1    2
    19    18     7    2
