@<TRIPOS>MOLECULE
*****
 24 26 0 0 0
SMALL
GASTEIGER

@<TRIPOS>ATOM
      1 N           6.5280    0.6100   17.2900 N.ar    1  UNL1       -0.2410
      2 N          11.9050    4.7300   22.2560 N.am    1  UNL1       -0.1652
      3 C           5.4980    0.7840   19.8970 C.ar    1  UNL1       -0.0034
      4 C          13.2160    0.5660   22.7210 C.ar    1  UNL1        0.0483
      5 O          12.5470    2.7190   23.5250 O.3     1  UNL1       -0.4583
      6 C          10.5260   -0.1830   22.6440 C.ar    1  UNL1       -0.0092
      7 C           4.8770    1.4220   18.8270 C.ar    1  UNL1        0.0177
      8 C          10.8910    1.0720   23.1200 C.ar    1  UNL1        0.0332
      9 C           8.4650    0.1710   21.2640 C.2     1  UNL1        0.2500
     10 C           6.6710    0.0500   19.6210 C.ar    1  UNL1        0.0885
     11 C           7.1300   -0.0150   18.3070 C.ar    1  UNL1        0.1151
     12 C          12.8130    3.5480   22.3840 C.3     1  UNL1        0.2718
     13 C          12.8360   -0.6860   22.2820 C.ar    1  UNL1        0.0604
     14 C          11.5130   -1.0710   22.2360 C.ar    1  UNL1        0.0078
     15 C          12.2260    1.4400   23.1370 C.ar    1  UNL1        0.1412
     16 C          13.8940    4.5470   22.8080 C.3     1  UNL1        0.1539
     17 C           4.9570    0.9350   21.2960 C.3     1  UNL1        0.0325
     18 N           7.4350   -0.4840   20.6850 N.am    1  UNL1       -0.1777
     19 O           8.8760    1.2600   20.8770 O.2     1  UNL1       -0.2726
     20 O          13.0230    6.7700   21.9330 O.2     1  UNL1       -0.2730
     21 C           9.0670   -0.5320   22.4650 C.3     1  UNL1        0.1136
     22 C           5.4230    1.3170   17.5630 C.ar    1  UNL1        0.0987
     23 C          12.9340    5.5970   22.2780 C.2     1  UNL1        0.2499
     24 CL         14.0640   -1.8280   21.8170 Cl      1  UNL1       -0.0822
@<TRIPOS>BOND
     1     7     3   ar
     2     8     6   ar
     3    10     3   ar
     4    11    10   ar
     5    11     1   ar
     6    12     5    1
     7    12     2    1
     8    13     4   ar
     9    14     6   ar
    10    14    13   ar
    11    15     8   ar
    12    15     5    1
    13    15     4   ar
    14    16    12    1
    15    17     3    1
    16    18    10    1
    17    18     9   am
    18    19     9    2
    19    21     9    1
    20    21     6    1
    21    22     7   ar
    22    22     1   ar
    23    23    16    1
    24    23     2   am
    25    23    20    2
    26    24    13    1
