@<TRIPOS>MOLECULE
*****
 21 22 0 0 0
SMALL
GASTEIGER

@<TRIPOS>ATOM
      1 CL         13.9480   -1.8460   21.3640 Cl      1  UNL1       -0.0823
      2 C          12.7510   -0.8880   22.1890 C.ar    1  UNL1        0.0574
      3 C          13.1390    0.2740   22.8240 C.ar    1  UNL1        0.0114
      4 C          12.1770    1.0220   23.4840 C.ar    1  UNL1        0.0006
      5 C          10.8510    0.6160   23.4830 C.ar    1  UNL1       -0.0038
      6 C          11.4340   -1.3050   22.1750 C.ar    1  UNL1        0.0076
      7 C          10.4620   -0.5360   22.8070 C.ar    1  UNL1       -0.0130
      8 C           8.9920   -0.8920   22.6400 C.3     1  UNL1        0.1008
      9 C           8.2000   -0.6090   23.9260 C.3     1  UNL1        0.0136
     10 C           8.4420   -1.6140   25.0290 C.3     1  UNL1        0.0008
     11 C           8.0850   -1.0620   26.3710 C.3     1  UNL1        0.0000
     12 C           8.4120   -0.0700   21.4890 C.2     1  UNL1        0.2492
     13 O           8.8740    1.0190   21.1710 O.2     1  UNL1       -0.2726
     14 N           7.3220   -0.6100   20.8990 N.am    1  UNL1       -0.1777
     15 C           6.5880    0.0190   19.8650 C.ar    1  UNL1        0.0885
     16 C           5.4310    0.7550   20.1730 C.ar    1  UNL1       -0.0034
     17 C           4.9550    0.9420   21.5920 C.3     1  UNL1        0.0325
     18 C           4.7740    1.3810   19.1200 C.ar    1  UNL1        0.0177
     19 C           5.2840    1.2830   17.8420 C.ar    1  UNL1        0.0987
     20 N           6.3890    0.5940   17.5390 N.ar    1  UNL1       -0.2410
     21 C           7.0210   -0.0240   18.5410 C.ar    1  UNL1        0.1151
@<TRIPOS>BOND
     1     2     1    1
     2     3     2   ar
     3     4     3   ar
     4     5     4   ar
     5     6     2   ar
     6     7     5   ar
     7     7     6   ar
     8     8     7    1
     9     8     9    1
    10    10     9    1
    11    11    10    1
    12    12     8    1
    13    13    12    2
    14    14    12   am
    15    15    14    1
    16    16    15   ar
    17    17    16    1
    18    18    16   ar
    19    19    18   ar
    20    20    19   ar
    21    21    20   ar
    22    21    15   ar
