@<TRIPOS>MOLECULE
*****
 26 28 0 0 0
SMALL
GASTEIGER

@<TRIPOS>ATOM
      1 O           8.7350    0.6050   20.8670 O.2     1  UNL1       -0.2726
      2 C           8.1710   -0.4750   21.0140 C.2     1  UNL1        0.2500
      3 N           7.0430   -0.8240   20.3740 N.am    1  UNL1       -0.1777
      4 C           6.3770   -0.0370   19.4190 C.ar    1  UNL1        0.0885
      5 C           5.2420    0.7010   19.7900 C.ar    1  UNL1       -0.0034
      6 C           4.7470    0.7430   21.2130 C.3     1  UNL1        0.0325
      7 C           4.6340    1.4740   18.8080 C.ar    1  UNL1        0.0177
      8 C           5.1710    1.5020   17.5360 C.ar    1  UNL1        0.0987
      9 N           6.2650    0.8160   17.1780 N.ar    1  UNL1       -0.2410
     10 C           6.8470    0.0520   18.1110 C.ar    1  UNL1        0.1151
     11 C           8.6930   -1.5320   21.9660 C.3     1  UNL1        0.1136
     12 C           9.9870   -1.0930   22.6030 C.ar    1  UNL1       -0.0092
     13 C          11.2020   -1.5510   22.1080 C.ar    1  UNL1        0.0078
     14 C          12.3740   -1.1560   22.7150 C.ar    1  UNL1        0.0604
     15 CL         13.8800   -1.8280   22.1570 Cl      1  UNL1       -0.0822
     16 C          12.3810   -0.3000   23.7970 C.ar    1  UNL1        0.0483
     17 C           9.9710   -0.2440   23.7010 C.ar    1  UNL1        0.0332
     18 C          11.1640    0.1350   24.2960 C.ar    1  UNL1        0.1398
     19 O          11.2530    0.9710   25.3800 O.3     1  UNL1       -0.4654
     20 C          10.0610    1.5740   25.9000 C.3     1  UNL1        0.2923
     21 C           9.3050    0.6260   26.7660 C.ar    1  UNL1        0.2808
     22 O           9.8750   -0.5060   27.2010 O.2     1  UNL1       -0.3334
     23 N           8.8990   -1.1450   28.0130 N.ar    1  UNL1       -0.0605
     24 N           8.1000    0.7910   27.1890 N.ar    1  UNL1       -0.1917
     25 C           7.8900   -0.3260   27.9600 C.ar    1  UNL1        0.1810
     26 C           6.5960   -0.5490   28.6560 C.3     1  UNL1        0.0773
@<TRIPOS>BOND
     1     2     1    2
     2     3     2   am
     3     4     3    1
     4     5     4   ar
     5     6     5    1
     6     7     5   ar
     7     8     7   ar
     8     9     8   ar
     9    10     9   ar
    10    10     4   ar
    11    11     2    1
    12    12    11    1
    13    13    12   ar
    14    14    13   ar
    15    15    14    1
    16    16    14   ar
    17    17    12   ar
    18    18    17   ar
    19    18    16   ar
    20    19    18    1
    21    20    19    1
    22    21    20    1
    23    22    21   ar
    24    23    22   ar
    25    24    21   ar
    26    25    24   ar
    27    25    23   ar
    28    26    25    1
