@<TRIPOS>MOLECULE
*****
 11 11 0 0 0
SMALL
GASTEIGER

@<TRIPOS>ATOM
      1 N           7.5280   -3.2020   21.3800 N.am    1  UNL1       -0.1768
      2 C           8.5740   -2.6420   19.3410 C.3     1  UNL1        0.0968
      3 O           6.3860   -3.6150   19.4520 O.2     1  UNL1       -0.2730
      4 C           7.3730   -3.2140   20.0460 C.2     1  UNL1        0.2461
      5 C           6.5320   -3.3080   22.3740 C.ar    1  UNL1        0.1017
      6 C           6.1040   -2.2080   23.1140 C.ar    1  UNL1        0.0206
      7 C           5.1350   -2.3970   24.0750 C.ar    1  UNL1        0.0221
      8 C           4.6380   -3.6670   24.2630 C.ar    1  UNL1        0.0999
      9 C           5.9710   -4.5480   22.6450 C.ar    1  UNL1        0.1535
     10 N           5.0450   -4.7290   23.5620 N.ar    1  UNL1       -0.2311
     11 CL          6.4730   -5.9530   21.7700 Cl      1  UNL1       -0.0599
@<TRIPOS>BOND
     1     4     3    2
     2     4     2    1
     3     4     1   am
     4     5     1    1
     5     6     5   ar
     6     7     6   ar
     7     8     7   ar
     8     9     5   ar
     9    10     8   ar
    10    10     9   ar
    11    11     9    1
