@<TRIPOS>MOLECULE
*****
 13 14 0 0 0
SMALL
GASTEIGER

@<TRIPOS>ATOM
      1 C           9.5580    1.8200   22.2670 C.2     1  UNL1        0.2606
      2 C           9.1730    1.1610   23.6340 C.3     1  UNL1        0.0839
      3 C           7.8480    1.0680   23.7850 C.3     1  UNL1        0.0095
      4 C           7.4560   -0.4410   23.3710 C.3     1  UNL1        0.0008
      5 C           8.8250   -1.1350   23.0350 C.3     1  UNL1        0.0049
      6 C           9.7470   -0.4010   23.7150 C.3     1  UNL1        0.0316
      7 C          11.1740   -0.4880   23.1190 C.ar    1  UNL1       -0.0150
      8 C          12.1800    0.4340   23.4970 C.ar    1  UNL1        0.0032
      9 C          13.4350    0.2230   22.8750 C.ar    1  UNL1        0.0351
     10 C          11.5520   -1.4830   22.1960 C.ar    1  UNL1        0.0312
     11 N          10.3490    3.0590   22.2720 N.am    1  UNL1       -0.0878
     12 O           9.2250    1.3200   21.2130 O.2     1  UNL1       -0.2717
     13 S          13.2410   -1.1710   21.8340 S.2     1  UNL1       -0.0863
@<TRIPOS>BOND
     1     2     1    1
     2     3     2    1
     3     4     3    1
     4     5     4    1
     5     6     5    1
     6     6     2    1
     7     6     7    1
     8     8     7   ar
     9     9     8   ar
    10    10     7   ar
    11    11     1   am
    12    12     1    2
    13    13    10   ar
    14    13     9   ar
