@<TRIPOS>MOLECULE
*****
 14 13 0 0 0
SMALL
GASTEIGER

@<TRIPOS>ATOM
      1 O           4.6390   -4.4240   23.4520 O.2     1  UNL1       -0.2714
      2 C           4.5650   -5.5150   22.8890 C.2     1  UNL1        0.2641
      3 N           5.4980   -5.9430   22.0170 N.am    1  UNL1       -0.1991
      4 C           6.6630   -5.1370   21.6300 C.3     1  UNL1        0.1413
      5 C           6.8050   -4.6320   20.1090 C.2     1  UNL1       -0.0029
      6 C           5.7660   -4.8690   19.4940 C.2     1  UNL1       -0.0031
      7 C           3.3360   -6.4070   23.1190 C.3     1  UNL1        0.2028
      8 C           3.3760   -7.0610   24.5130 C.3     1  UNL1        0.1808
      9 O           4.5680   -7.8300   24.6420 O.3     1  UNL1       -0.2208
     10 C           2.1870   -7.9610   24.7820 C.3     1  UNL1        0.0379
     11 N           2.1380   -5.5770   23.0430 N.am    1  UNL1       -0.1951
     12 C           1.0090   -5.9630   22.4230 C.2     1  UNL1        0.2423
     13 O           0.9360   -7.0150   21.7880 O.2     1  UNL1       -0.2733
     14 C          -0.1590   -5.0270   22.5450 C.3     1  UNL1        0.0964
@<TRIPOS>BOND
     1     2     1    2
     2     3     2   am
     3     4     3    1
     4     5     4    1
     5     6     5    2
     6     7     2    1
     7     8     7    1
     8     9     8    1
     9     8    10    1
    10     7    11    1
    11    12    11   am
    12    13    12    2
    13    14    12    1
