@<TRIPOS>MOLECULE
*****
 34 36 0 0 0
SMALL
GASTEIGER

@<TRIPOS>ATOM
      1 F          12.9510    6.5560   23.9370 F       1  UNL1       -0.2042
      2 C          12.7240    5.2850   23.5020 C.ar    1  UNL1        0.1398
      3 C          11.5390    4.6760   23.8550 C.ar    1  UNL1        0.0254
      4 C          13.6840    4.6760   22.7400 C.ar    1  UNL1        0.0296
      5 C          13.4460    3.3770   22.3170 C.ar    1  UNL1        0.0020
      6 C          12.2620    2.7360   22.6530 C.ar    1  UNL1       -0.0041
      7 C          11.2940    3.3760   23.4180 C.ar    1  UNL1       -0.0182
      8 C           9.9970    2.6790   23.7650 C.3     1  UNL1        0.0498
      9 C           8.7800    3.2140   23.0090 C.3     1  UNL1        0.1199
     10 N           7.8520    2.1530   22.6340 N.am    1  UNL1       -0.2034
     11 C           8.0640    1.3750   21.5720 C.2     1  UNL1        0.2642
     12 O           9.0270    1.5100   20.8280 O.2     1  UNL1       -0.2712
     13 C           7.0190    0.2700   21.3310 C.3     1  UNL1        0.1817
     14 C           6.3500    0.4010   19.9670 C.ar    1  UNL1        0.0241
     15 C           5.1910    1.1500   19.8140 C.ar    1  UNL1        0.0010
     16 C           4.6980    1.4200   18.5490 C.ar    1  UNL1        0.0204
     17 C           5.3760    0.9090   17.4610 C.ar    1  UNL1        0.0989
     18 N           6.4790    0.1580   17.5690 N.ar    1  UNL1       -0.2426
     19 C           6.9390   -0.0830   18.8050 C.ar    1  UNL1        0.0967
     20 N           7.5380   -1.0820   21.6770 N.am    1  UNL1       -0.2480
     21 C           6.7770   -2.1980   21.4550 C.2     1  UNL1        0.2299
     22 C           7.4160   -3.5620   21.6610 C.3     1  UNL1        0.0857
     23 C           7.2640   -4.4750   20.4340 C.3     1  UNL1        0.0101
     24 O           5.6070   -2.1210   21.0980 O.2     1  UNL1       -0.2745
     25 C           8.8210   -1.1530   22.3290 C.ar    1  UNL1        0.0545
     26 C           9.9820   -1.4010   21.5950 C.ar    1  UNL1        0.0146
     27 C          11.2100   -1.4780   22.2360 C.ar    1  UNL1       -0.0030
     28 C          11.3150   -1.3110   23.6160 C.ar    1  UNL1       -0.0227
     29 C          12.6610   -1.4150   24.3500 C.3     1  UNL1        0.0189
     30 C          12.5500   -2.4480   25.4790 C.3     1  UNL1        0.0044
     31 C          13.8180   -1.8370   23.4310 C.3     1  UNL1        0.0044
     32 C          13.0280   -0.0590   24.9620 C.3     1  UNL1        0.0044
     33 C          10.1510   -1.0550   24.3380 C.ar    1  UNL1       -0.0030
     34 C           8.9170   -0.9830   23.7120 C.ar    1  UNL1        0.0146
@<TRIPOS>BOND
     1     2     1    1
     2     3     2   ar
     3     4     2   ar
     4     5     4   ar
     5     6     5   ar
     6     7     6   ar
     7     7     3   ar
     8     8     7    1
     9     9     8    1
    10    10     9    1
    11    11    10   am
    12    12    11    2
    13    13    11    1
    14    14    13    1
    15    15    14   ar
    16    16    15   ar
    17    17    16   ar
    18    18    17   ar
    19    19    18   ar
    20    19    14   ar
    21    20    13    1
    22    21    20   am
    23    22    21    1
    24    23    22    1
    25    24    21    2
    26    25    20    1
    27    26    25   ar
    28    27    26   ar
    29    28    27   ar
    30    29    28    1
    31    29    30    1
    32    31    29    1
    33    32    29    1
    34    33    28   ar
    35    34    33   ar
    36    34    25   ar
