@<TRIPOS>MOLECULE
*****
 28 31 0 0 0
SMALL
GASTEIGER

@<TRIPOS>ATOM
      1 CL         14.2290   -1.6050   20.8670 Cl      1  UNL1       -0.0823
      2 C          13.1600   -0.7830   21.9710 C.ar    1  UNL1        0.0576
      3 C          13.6640    0.2200   22.7700 C.ar    1  UNL1        0.0145
      4 C          12.7940    0.9720   23.5380 C.ar    1  UNL1        0.0374
      5 C          11.8090   -1.0690   21.9320 C.ar    1  UNL1        0.0106
      6 C          10.9170   -0.3080   22.6860 C.ar    1  UNL1        0.0212
      7 C          11.4350    0.6980   23.5070 C.ar    1  UNL1        0.1350
      8 O          10.6690    1.4110   24.4000 O.3     1  UNL1       -0.4757
      9 C           9.2340    1.3130   24.2720 C.3     1  UNL1        0.2062
     10 C           8.7680   -0.0770   23.9180 C.3     1  UNL1        0.0610
     11 C           9.4200   -0.5280   22.6060 C.3     1  UNL1        0.1074
     12 C           8.8090    0.2080   21.4110 C.2     1  UNL1        0.2495
     13 O           9.2180    1.3060   21.0360 O.2     1  UNL1       -0.2726
     14 N           7.7590   -0.4260   20.8390 N.am    1  UNL1       -0.1774
     15 C           6.9100    0.0420   19.8160 C.ar    1  UNL1        0.0925
     16 C           7.1260   -0.1590   18.4520 C.ar    1  UNL1        0.1154
     17 N           6.3740    0.3550   17.4700 N.ar    1  UNL1       -0.2410
     18 C           5.3430    1.1080   17.8190 C.ar    1  UNL1        0.0989
     19 C           5.7920    0.8510   20.1930 C.ar    1  UNL1        0.0197
     20 C           4.9890    1.4050   19.1570 C.ar    1  UNL1        0.0205
     21 C           3.8970    2.2390   19.5050 C.ar    1  UNL1        0.0029
     22 C           3.6060    2.5020   20.8120 C.ar    1  UNL1        0.0184
     23 C           5.4600    1.1450   21.5370 C.ar    1  UNL1        0.0197
     24 C           4.3840    1.9450   21.8190 C.ar    1  UNL1        0.1058
     25 S           3.9340    2.1910   23.5100 S.O2    1  UNL1        0.0104
     26 O           2.6000    1.6910   23.6950 O.2     1  UNL1       -0.1686
     27 O           4.9790    1.6520   24.3360 O.2     1  UNL1       -0.1686
     28 C           3.9110    3.9340   23.7050 C.3     1  UNL1        0.1816
@<TRIPOS>BOND
     1     2     1    1
     2     3     2   ar
     3     4     3   ar
     4     5     2   ar
     5     6     5   ar
     6     7     6   ar
     7     7     4   ar
     8     8     7    1
     9     9     8    1
    10    10     9    1
    11    11    10    1
    12    11     6    1
    13    11    12    1
    14    13    12    2
    15    14    12   am
    16    15    14    1
    17    16    15   ar
    18    17    16   ar
    19    18    17   ar
    20    19    15   ar
    21    20    18   ar
    22    20    19   ar
    23    21    20   ar
    24    22    21   ar
    25    23    19   ar
    26    24    22   ar
    27    24    23   ar
    28    25    24    1
    29    26    25    2
    30    27    25    2
    31    25    28    1
