@<TRIPOS>MOLECULE
*****
 32 35 0 0 0
SMALL
GASTEIGER

@<TRIPOS>ATOM
      1 O           9.0310    1.0530   21.0660 O.2     1  UNL1       -0.2726
      2 C           8.4000    0.1610   21.6160 C.2     1  UNL1        0.2504
      3 N           7.2110   -0.2820   21.1500 N.am    1  UNL1       -0.1773
      4 C           6.5280    0.1690   20.0030 C.ar    1  UNL1        0.0925
      5 C           5.3510    0.9580   20.1840 C.ar    1  UNL1        0.0184
      6 C           4.8100    1.2880   21.4550 C.ar    1  UNL1        0.0014
      7 C           3.6840    2.0530   21.5610 C.ar    1  UNL1        0.0000
      8 C           3.0410    2.5280   20.4240 C.ar    1  UNL1        0.0001
      9 C           3.5180    2.2320   19.1790 C.ar    1  UNL1        0.0016
     10 C           4.6830    1.4380   19.0230 C.ar    1  UNL1        0.0204
     11 C           5.2280    1.0980   17.7610 C.ar    1  UNL1        0.0989
     12 N           6.3220    0.3650   17.5940 N.ar    1  UNL1       -0.2410
     13 C           6.9410   -0.0830   18.6940 C.ar    1  UNL1        0.1154
     14 C           8.9170   -0.4970   22.9180 C.3     1  UNL1        0.1160
     15 C          10.4180   -0.1990   23.0330 C.ar    1  UNL1        0.0221
     16 C          11.3440   -0.9010   22.2610 C.ar    1  UNL1        0.0106
     17 C          12.6710   -0.5120   22.2750 C.ar    1  UNL1        0.0576
     18 CL         13.8110   -1.3660   21.2730 Cl      1  UNL1       -0.0823
     19 C          13.1150    0.5450   23.0380 C.ar    1  UNL1        0.0145
     20 C          12.2180    1.2230   23.8420 C.ar    1  UNL1        0.0374
     21 C          10.8860    0.8420   23.8450 C.ar    1  UNL1        0.1350
     22 O          10.0830    1.5070   24.7380 O.3     1  UNL1       -0.4757
     23 C           8.7020    1.5900   24.3470 C.3     1  UNL1        0.2063
     24 C           8.1290    0.2230   24.0380 C.3     1  UNL1        0.0619
     25 C           8.6280   -2.0260   22.8860 C.3     1  UNL1        0.1281
     26 N           8.7910   -2.7250   24.1510 N.am    1  UNL1       -0.2034
     27 C           7.7570   -3.1030   24.9070 C.2     1  UNL1        0.2578
     28 O           6.6090   -2.7030   24.7240 O.2     1  UNL1       -0.2718
     29 C           8.0610   -4.1250   25.9900 C.3     1  UNL1        0.1603
     30 N           9.1100   -3.7460   26.9430 N.3     1  UNL1       -0.2625
     31 C           9.4850   -4.8950   27.7650 C.3     1  UNL1        0.0900
     32 C           8.6630   -2.6470   27.7990 C.3     1  UNL1        0.0900
@<TRIPOS>BOND
     1     2     1    2
     2     3     2   am
     3     4     3    1
     4     5     4   ar
     5     6     5   ar
     6     7     6   ar
     7     8     7   ar
     8     9     8   ar
     9    10     9   ar
    10    10     5   ar
    11    11    10   ar
    12    12    11   ar
    13    13    12   ar
    14    13     4   ar
    15    14     2    1
    16    15    14    1
    17    16    15   ar
    18    17    16   ar
    19    18    17    1
    20    19    17   ar
    21    20    19   ar
    22    21    15   ar
    23    21    20   ar
    24    22    21    1
    25    23    22    1
    26    24    23    1
    27    24    14    1
    28    14    25    1
    29    26    25    1
    30    27    26   am
    31    28    27    2
    32    29    27    1
    33    30    29    1
    34    31    30    1
    35    32    30    1
