@<TRIPOS>MOLECULE
*****
 24 26 0 0 0
SMALL
GASTEIGER

@<TRIPOS>ATOM
      1 N           7.9120   -2.1930   24.3540 N.3     1  UNL1       -0.2739
      2 C          11.9530   -1.3410   22.7860 C.3     1  UNL1        0.0000
      3 C           4.7970   -0.1710   25.4570 C.3     1  UNL1        0.0343
      4 C           6.4690   -4.3610   20.3260 C.3     1  UNL1        0.2128
      5 O           5.6500   -5.0860   19.7970 O.3     1  UNL1       -0.2050
      6 C          11.6080   -2.3230   25.5230 C.3     1  UNL1        0.0014
      7 C           5.6940   -0.9190   24.4660 C.3     1  UNL1        0.0186
      8 C           6.5550   -5.8080   22.3080 C.3     1  UNL1        0.0744
      9 C           9.1160   -2.6520   25.1750 C.3     1  UNL1        0.0720
     10 C           6.8010    0.7320   26.6320 C.3     1  UNL1        0.0343
     11 C           7.7220   -0.0220   25.6620 C.3     1  UNL1        0.0186
     12 C          13.0690   -1.1670   23.8150 C.3     1  UNL1        0.0000
     13 C           7.2510   -3.2920   23.6120 C.3     1  UNL1        0.0735
     14 C           7.8680   -3.7180   22.2880 C.3     1  UNL1        0.0902
     15 C          12.9990   -2.2510   24.8850 C.3     1  UNL1        0.0000
     16 C          10.5760   -1.3980   23.4540 C.3     1  UNL1        0.0014
     17 C           7.0060   -3.1600   19.5740 C.3     1  UNL1        0.0542
     18 C           6.8050   -4.5020   24.4390 C.3     1  UNL1        0.0188
     19 C           5.4760    1.0790   25.9780 C.3     1  UNL1        0.1521
     20 N           6.9450   -4.6000   21.5660 N.3     1  UNL1       -0.2470
     21 O           4.6250    1.7510   26.8990 O.3     1  UNL1       -0.2231
     22 C          10.4930   -2.5150   24.4920 C.3     1  UNL1        0.0160
     23 C           7.0350   -1.2750   25.1120 C.3     1  UNL1        0.0577
     24 C           5.8980   -5.4280   23.6270 C.3     1  UNL1        0.0188
@<TRIPOS>BOND
     1     5     4    1
     2     7     3    1
     3     9     1    1
     4    11    10    1
     5    12     2    1
     6    13     1    1
     7    14    13    1
     8    15    12    1
     9    15     6    1
    10    16     2    1
    11    17     4    1
    12    18    13    1
    13    19     3    1
    14    19    10    1
    15    20     8    1
    16    20     4    1
    17    20    14    1
    18    19    21    1
    19    22    16    1
    20    22     9    1
    21    22     6    1
    22    23    11    1
    23    23     7    1
    24    23     1    1
    25    24     8    1
    26    24    18    1
