@<TRIPOS>MOLECULE
*****
 13 13 0 0 0
SMALL
GASTEIGER

@<TRIPOS>ATOM
      1 C           6.5650   -5.0400   26.5740 C.3     1  UNL1        0.1975
      2 C           9.4510   -3.1150   24.1690 C.3     1  UNL1        0.1197
      3 C           9.3510   -1.8310   23.3570 C.3     1  UNL1        0.0471
      4 C          10.7480   -1.2320   23.4040 C.ar    1  UNL1       -0.0207
      5 C          11.0590   -0.1920   24.2710 C.ar    1  UNL1       -0.0042
      6 C          12.3510    0.3080   24.2960 C.ar    1  UNL1       -0.0003
      7 C          13.3280   -0.2450   23.4840 C.ar    1  UNL1       -0.0000
      8 C          13.0140   -1.2930   22.6280 C.ar    1  UNL1       -0.0003
      9 C          11.7240   -1.7830   22.5970 C.ar    1  UNL1       -0.0042
     10 N           8.1960   -3.6200   24.6640 N.3     1  UNL1       -0.0816
     11 O           9.2100   -5.5390   26.1600 O.2     1  UNL1       -0.1561
     12 O           8.7770   -3.6120   27.2020 O.2     1  UNL1       -0.1561
     13 S           8.2270   -4.4510   26.1510 S.O2    1  UNL1        0.0592
@<TRIPOS>BOND
     1     3     2    1
     2     4     3    1
     3     5     4   ar
     4     6     5   ar
     5     7     6   ar
     6     8     7   ar
     7     9     4   ar
     8     9     8   ar
     9    10     2    1
    10    13    11    2
    11    13    12    2
    12    13    10    1
    13    13     1    1
