@<TRIPOS>MOLECULE
*****
 31 34 0 0 0
SMALL
GASTEIGER

@<TRIPOS>ATOM
      1 O           6.0010    2.8040   24.5460 O.2     1  UNL1       -0.1528
      2 S           4.7220    2.1660   24.5890 S.O2    1  UNL1        0.0750
      3 O           4.6590    0.7490   24.7730 O.2     1  UNL1       -0.1528
      4 C           3.7700    2.9280   25.8490 C.3     1  UNL1        0.2016
      5 N           3.9770    2.5060   23.1790 N.pl3   1  UNL1       -0.1006
      6 C           4.3750    2.0710   21.8700 C.ar    1  UNL1        0.0907
      7 C           3.6230    2.4730   20.7640 C.ar    1  UNL1        0.0181
      8 C           3.9860    2.1190   19.4990 C.ar    1  UNL1        0.0030
      9 C           5.4950    1.2860   21.6850 C.ar    1  UNL1        0.0194
     10 C           5.9010    0.8830   20.3860 C.ar    1  UNL1        0.0197
     11 C           5.1320    1.3180   19.2710 C.ar    1  UNL1        0.0205
     12 C           5.5660    0.9360   17.9760 C.ar    1  UNL1        0.0989
     13 N           6.6450    0.2010   17.7370 N.ar    1  UNL1       -0.2410
     14 C           7.3630   -0.2060   18.7950 C.ar    1  UNL1        0.1154
     15 C           7.0630    0.0850   20.1270 C.ar    1  UNL1        0.0926
     16 N           7.8610   -0.3290   21.2190 N.am    1  UNL1       -0.1754
     17 C           8.9720    0.2770   21.7040 C.2     1  UNL1        0.2742
     18 O           9.4490    1.3060   21.2410 O.2     1  UNL1       -0.2701
     19 C           9.6150   -0.4190   22.9480 C.3     1  UNL1        0.1877
     20 O           9.3380   -1.8030   22.7270 O.3     1  UNL1       -0.3428
     21 C           9.7990   -2.7250   23.7260 C.3     1  UNL1        0.1750
     22 C          11.1100   -0.1800   22.9600 C.ar    1  UNL1        0.0453
     23 C          11.9330   -0.8190   22.0410 C.ar    1  UNL1        0.0129
     24 C          13.2770   -0.5040   21.9980 C.ar    1  UNL1        0.0576
     25 CL         14.2960   -1.3360   20.8550 Cl      1  UNL1       -0.0823
     26 C          13.8310    0.4430   22.8360 C.ar    1  UNL1        0.0145
     27 C          13.0280    1.0750   23.7690 C.ar    1  UNL1        0.0375
     28 C          11.6790    0.7580   23.8300 C.ar    1  UNL1        0.1372
     29 O          10.9630    1.3790   24.8260 O.3     1  UNL1       -0.4756
     30 C           9.5370    1.4780   24.5860 C.3     1  UNL1        0.2087
     31 C           8.9290    0.1430   24.2000 C.3     1  UNL1        0.0879
@<TRIPOS>BOND
     1     2     1    2
     2     3     2    2
     3     2     4    1
     4     5     2    1
     5     6     5    1
     6     7     6   ar
     7     8     7   ar
     8     9     6   ar
     9    10     9   ar
    10    11     8   ar
    11    11    10   ar
    12    12    11   ar
    13    13    12   ar
    14    14    13   ar
    15    15    14   ar
    16    15    10   ar
    17    16    15    1
    18    17    16   am
    19    18    17    2
    20    19    17    1
    21    19    20    1
    22    21    20    1
    23    22    19    1
    24    23    22   ar
    25    24    23   ar
    26    25    24    1
    27    26    24   ar
    28    27    26   ar
    29    28    27   ar
    30    28    22   ar
    31    29    28    1
    32    30    29    1
    33    31    30    1
    34    31    19    1
