@<TRIPOS>MOLECULE
*****
 18 20 0 0 0
SMALL
GASTEIGER

@<TRIPOS>ATOM
      1 CL         13.8070   -1.6340   21.2270 Cl      1  UNL1       -0.0823
      2 C          12.7090   -0.9540   22.3960 C.ar    1  UNL1        0.0574
      3 C          12.9850    0.2830   22.9410 C.ar    1  UNL1        0.0114
      4 C          12.1380    0.7830   23.9170 C.ar    1  UNL1        0.0006
      5 C          11.0400    0.0470   24.3320 C.ar    1  UNL1       -0.0029
      6 C          11.6110   -1.6930   22.7900 C.ar    1  UNL1        0.0085
      7 C          10.7650   -1.1960   23.7760 C.ar    1  UNL1       -0.0053
      8 C           9.5800   -2.0050   24.2460 C.3     1  UNL1        0.0992
      9 N           8.8680   -2.6550   23.1400 N.3     1  UNL1       -0.2671
     10 C           7.8590   -3.6520   23.5690 C.3     1  UNL1        0.0794
     11 C           7.6980   -4.5850   22.3710 C.3     1  UNL1        0.1093
     12 C           8.1300   -1.7140   22.2800 C.3     1  UNL1        0.0924
     13 C           6.7970   -2.4270   22.0760 C.3     1  UNL1        0.0927
     14 C           6.5340   -2.8840   23.5130 C.3     1  UNL1        0.0389
     15 N           7.0380   -3.7140   21.3960 N.am    1  UNL1       -0.2784
     16 C           6.6600   -4.0430   20.1440 C.2     1  UNL1        0.2262
     17 O           6.2200   -5.1510   19.8990 O.2     1  UNL1       -0.2749
     18 C           6.7510   -2.9830   19.0630 C.3     1  UNL1        0.0948
@<TRIPOS>BOND
     1     2     1    1
     2     3     2   ar
     3     4     3   ar
     4     5     4   ar
     5     6     2   ar
     6     7     6   ar
     7     7     5   ar
     8     8     7    1
     9     9     8    1
    10    10     9    1
    11    10    11    1
    12    12     9    1
    13    13    12    1
    14    14    13    1
    15    14    10    1
    16    15    13    1
    17    15    11    1
    18    16    15   am
    19    17    16    2
    20    18    16    1
