@<TRIPOS>MOLECULE
*****
 23 25 0 0 0
SMALL
GASTEIGER

@<TRIPOS>ATOM
      1 CL         14.1630   -1.5720   21.0790 Cl      1  UNL1       -0.0823
      2 C          12.8980   -0.9160   22.0760 C.ar    1  UNL1        0.0574
      3 C          13.2000    0.0790   22.9840 C.ar    1  UNL1        0.0114
      4 C          12.1860    0.5740   23.7870 C.ar    1  UNL1        0.0006
      5 C          10.8920    0.0920   23.6590 C.ar    1  UNL1       -0.0038
      6 C          11.6150   -1.4050   21.9350 C.ar    1  UNL1        0.0076
      7 C          10.5890   -0.8820   22.7140 C.ar    1  UNL1       -0.0130
      8 C           9.1440   -1.2930   22.4550 C.3     1  UNL1        0.1008
      9 C           8.3580   -1.4460   23.7620 C.3     1  UNL1        0.0144
     10 C           8.5440   -0.2780   21.4760 C.2     1  UNL1        0.2493
     11 O           9.1210    0.7730   21.2020 O.2     1  UNL1       -0.2726
     12 N           7.3600   -0.6420   20.9150 N.am    1  UNL1       -0.1758
     13 C           6.6530    0.0640   19.9130 C.ar    1  UNL1        0.1101
     14 C           5.5310    0.8520   20.2210 C.ar    1  UNL1        0.1012
     15 C           4.8550    1.4990   19.1960 C.ar    1  UNL1        0.0411
     16 C           5.3360    1.3410   17.9090 C.ar    1  UNL1        0.1005
     17 N           6.4080    0.6070   17.5910 N.ar    1  UNL1       -0.2409
     18 C           7.0490   -0.0180   18.5820 C.ar    1  UNL1        0.1169
     19 N           5.0680    1.0360   21.5620 N.ar    1  UNL1       -0.2268
     20 N           3.7350    1.1650   21.8130 N.ar    1  UNL1       -0.1634
     21 C           3.6760    1.4270   23.1120 C.ar    1  UNL1        0.1221
     22 C           4.9370    1.4620   23.7040 C.ar    1  UNL1        0.0431
     23 C           5.8110    1.2020   22.6870 C.ar    1  UNL1        0.1021
@<TRIPOS>BOND
     1     2     1    1
     2     3     2   ar
     3     4     3   ar
     4     5     4   ar
     5     6     2   ar
     6     7     5   ar
     7     7     6   ar
     8     8     7    1
     9     8     9    1
    10    10     8    1
    11    11    10    2
    12    12    10   am
    13    13    12    1
    14    14    13   ar
    15    15    14   ar
    16    16    15   ar
    17    17    16   ar
    18    18    17   ar
    19    18    13   ar
    20    19    14    1
    21    20    19   ar
    22    21    20   ar
    23    22    21   ar
    24    23    19   ar
    25    23    22   ar
