@<TRIPOS>MOLECULE
*****
 8 7 0 0 0
SMALL
GASTEIGER

@<TRIPOS>ATOM
      1 C           5.8030   -1.1020   18.6330 C.3     1  UNL1        0.0330
      2 C           6.4990    0.2670   18.8260 C.3     1  UNL1        0.1292
      3 O           6.7580    0.8820   17.4860 O.3     1  UNL1       -0.2256
      4 C           7.8570    0.0390   19.5060 C.3     1  UNL1        0.0330
      5 C           5.6250    1.1860   19.7700 C.3     1  UNL1        0.0633
      6 C           4.1750    1.5460   19.2560 C.3     1  UNL1        0.1545
      7 O           3.4990    2.4100   20.2780 O.3     1  UNL1       -0.2231
      8 C           4.1680    2.3000   17.9100 C.3     1  UNL1        0.0356
@<TRIPOS>BOND
     1     2     1    1
     2     3     2    1
     3     4     2    1
     4     5     2    1
     5     6     5    1
     6     7     6    1
     7     6     8    1
