@<TRIPOS>MOLECULE
*****
 18 19 0 0 0
SMALL
GASTEIGER

@<TRIPOS>ATOM
      1 CL         13.8410   -1.7990   21.2570 Cl      1  UNL1       -0.0823
      2 C          12.6700   -1.0110   22.2800 C.ar    1  UNL1        0.0574
      3 C          13.1010   -0.1180   23.2430 C.ar    1  UNL1        0.0114
      4 C          12.1640    0.4300   24.1100 C.ar    1  UNL1        0.0006
      5 C          10.8230    0.1060   23.9840 C.ar    1  UNL1       -0.0037
      6 C          11.3310   -1.3240   22.1280 C.ar    1  UNL1        0.0076
      7 C          10.3890   -0.7480   22.9790 C.ar    1  UNL1       -0.0122
      8 C           8.9160   -0.9580   22.7250 C.3     1  UNL1        0.1135
      9 C           8.4560   -0.1670   21.5150 C.2     1  UNL1        0.2500
     10 O           9.0860    0.7960   21.0880 O.2     1  UNL1       -0.2726
     11 N           7.2950   -0.5890   20.9790 N.am    1  UNL1       -0.1777
     12 C           6.6300    0.0340   19.9040 C.ar    1  UNL1        0.0885
     13 C           5.4900    0.8230   20.1420 C.ar    1  UNL1       -0.0034
     14 C           4.8590    0.9320   21.5050 C.3     1  UNL1        0.0325
     15 C           7.1440   -0.0390   18.6110 C.ar    1  UNL1        0.1151
     16 N           6.6190    0.6260   17.5760 N.ar    1  UNL1       -0.2410
     17 C           5.5390    1.3800   17.8130 C.ar    1  UNL1        0.0987
     18 C           4.9520    1.5070   19.0560 C.ar    1  UNL1        0.0177
@<TRIPOS>BOND
     1     2     1    1
     2     3     2   ar
     3     4     3   ar
     4     5     4   ar
     5     6     2   ar
     6     7     5   ar
     7     7     6   ar
     8     8     7    1
     9     9     8    1
    10    10     9    2
    11    11     9   am
    12    12    11    1
    13    13    12   ar
    14    14    13    1
    15    15    12   ar
    16    16    15   ar
    17    17    16   ar
    18    18    17   ar
    19    18    13   ar
