@<TRIPOS>MOLECULE
*****
 21 23 0 0 0
SMALL
GASTEIGER

@<TRIPOS>ATOM
      1 O           9.0190    0.7270   21.0190 O.2     1  UNL1       -0.2726
      2 C           8.3700   -0.2120   21.4760 C.2     1  UNL1        0.2500
      3 C           8.8360   -0.9900   22.6930 C.3     1  UNL1        0.1134
      4 C          10.2540   -0.6680   23.1120 C.ar    1  UNL1       -0.0133
      5 C          10.5130    0.1020   24.2390 C.ar    1  UNL1       -0.0038
      6 C          11.8110    0.4730   24.5570 C.ar    1  UNL1       -0.0006
      7 C          12.8610    0.0730   23.7470 C.ar    1  UNL1       -0.0043
      8 C          11.3270   -1.0900   22.3330 C.ar    1  UNL1       -0.0080
      9 C          12.6340   -0.7300   22.6310 C.ar    1  UNL1       -0.0221
     10 C          13.7820   -1.2330   21.7910 C.3     1  UNL1        0.0310
     11 N           7.1950   -0.6300   20.9540 N.am    1  UNL1       -0.1773
     12 C           6.4750   -0.0710   19.8710 C.ar    1  UNL1        0.0925
     13 C           5.3770    0.8000   20.1570 C.ar    1  UNL1        0.0184
     14 C           4.8880    1.0550   21.4660 C.ar    1  UNL1        0.0014
     15 C           3.8400    1.9090   21.6700 C.ar    1  UNL1        0.0000
     16 C           3.2280    2.5500   20.6000 C.ar    1  UNL1        0.0001
     17 C           3.6580    2.3340   19.3220 C.ar    1  UNL1        0.0016
     18 C           4.7370    1.4540   19.0620 C.ar    1  UNL1        0.0204
     19 C           5.2180    1.1800   17.7580 C.ar    1  UNL1        0.0989
     20 N           6.2260    0.3600   17.4910 N.ar    1  UNL1       -0.2410
     21 C           6.8230   -0.2440   18.5290 C.ar    1  UNL1        0.1154
@<TRIPOS>BOND
     1     2     1    2
     2     3     2    1
     3     4     3    1
     4     5     4   ar
     5     6     5   ar
     6     7     6   ar
     7     8     4   ar
     8     9     8   ar
     9     9     7   ar
    10    10     9    1
    11    11     2   am
    12    12    11    1
    13    13    12   ar
    14    14    13   ar
    15    15    14   ar
    16    16    15   ar
    17    17    16   ar
    18    18    17   ar
    19    18    13   ar
    20    19    18   ar
    21    20    19   ar
    22    21    20   ar
    23    21    12   ar
