@<TRIPOS>MOLECULE
*****
 22 23 0 0 0
SMALL
GASTEIGER

@<TRIPOS>ATOM
      1 CL         13.9810   -1.6260   21.0670 Cl      1  UNL1       -0.0823
      2 C          12.9250   -0.6790   22.0800 C.ar    1  UNL1        0.0574
      3 C          13.4720    0.2480   22.9420 C.ar    1  UNL1        0.0114
      4 C          12.6280    0.9420   23.7940 C.ar    1  UNL1        0.0006
      5 C          11.2610    0.7140   23.7620 C.ar    1  UNL1       -0.0038
      6 C          11.5630   -0.9060   22.0240 C.ar    1  UNL1        0.0076
      7 C          10.7140   -0.1970   22.8680 C.ar    1  UNL1       -0.0130
      8 C           9.2070   -0.4150   22.7980 C.3     1  UNL1        0.1008
      9 C           8.8350   -1.8050   23.3540 C.3     1  UNL1        0.0144
     10 C           8.6770    0.1370   21.4640 C.2     1  UNL1        0.2493
     11 O           9.1310    1.1650   20.9750 O.2     1  UNL1       -0.2726
     12 N           7.6230   -0.5290   20.9150 N.am    1  UNL1       -0.1760
     13 C           6.8590   -0.0600   19.8240 C.ar    1  UNL1        0.1077
     14 C           5.6520    0.6140   20.0610 C.ar    1  UNL1        0.0917
     15 N           5.1840    0.7270   21.3910 N.am    1  UNL1       -0.1778
     16 C           3.9860    1.1710   21.8470 C.2     1  UNL1        0.2461
     17 C           3.8280    1.1370   23.3380 C.3     1  UNL1        0.0968
     18 O           3.0840    1.5600   21.1050 O.2     1  UNL1       -0.2730
     19 C           4.9700    1.1760   18.9850 C.ar    1  UNL1        0.0386
     20 C           5.5260    1.0430   17.7290 C.ar    1  UNL1        0.1003
     21 N           6.6760    0.4030   17.4790 N.ar    1  UNL1       -0.2409
     22 C           7.3180   -0.1440   18.5140 C.ar    1  UNL1        0.1167
@<TRIPOS>BOND
     1     2     1    1
     2     3     2   ar
     3     4     3   ar
     4     5     4   ar
     5     6     2   ar
     6     7     6   ar
     7     7     5   ar
     8     8     7    1
     9     8     9    1
    10    10     8    1
    11    11    10    2
    12    12    10   am
    13    13    12    1
    14    14    13   ar
    15    15    14    1
    16    16    15   am
    17    17    16    1
    18    18    16    2
    19    19    14   ar
    20    20    19   ar
    21    21    20   ar
    22    22    21   ar
    23    22    13   ar
