@<TRIPOS>MOLECULE
*****
 30 34 0 0 0
SMALL
GASTEIGER

@<TRIPOS>ATOM
      1 O           8.4960    1.0930   21.3170 O.2     1  UNL1       -0.2726
      2 C           8.2150   -0.1020   21.3500 C.2     1  UNL1        0.2493
      3 N           7.5770   -0.7340   20.3440 N.am    1  UNL1       -0.1774
      4 C           6.5570   -0.2730   19.4880 C.ar    1  UNL1        0.0925
      5 C           5.5590    0.6430   19.9580 C.ar    1  UNL1        0.0184
      6 C           5.1550    0.7380   21.3160 C.ar    1  UNL1        0.0014
      7 C           4.0880    1.5080   21.6810 C.ar    1  UNL1        0.0000
      8 C           3.3790    2.2310   20.7340 C.ar    1  UNL1        0.0001
      9 C           3.7290    2.1800   19.4160 C.ar    1  UNL1        0.0016
     10 C           4.8170    1.3770   18.9890 C.ar    1  UNL1        0.0204
     11 C           5.1200    1.1630   17.6250 C.ar    1  UNL1        0.0989
     12 N           6.0190    0.2950   17.1920 N.ar    1  UNL1       -0.2410
     13 C           6.6930   -0.4060   18.1100 C.ar    1  UNL1        0.1154
     14 C           8.6660   -1.0130   22.4920 C.3     1  UNL1        0.1036
     15 C          10.0680   -0.6320   22.9270 C.ar    1  UNL1        0.0004
     16 C          10.2630    0.3370   23.9190 C.ar    1  UNL1        0.0446
     17 C          11.5350    0.8510   24.1640 C.ar    1  UNL1        0.0151
     18 C          12.6200    0.3810   23.4420 C.ar    1  UNL1        0.0126
     19 C          11.1740   -1.1280   22.2440 C.ar    1  UNL1        0.0088
     20 C          12.4270   -0.6140   22.5070 C.ar    1  UNL1        0.0575
     21 CL         13.7950   -1.2450   21.6320 Cl      1  UNL1       -0.0823
     22 C           7.6830   -0.9210   23.6720 C.3     1  UNL1        0.0350
     23 C           7.7730    0.4380   24.3670 C.3     1  UNL1        0.0920
     24 N           9.1520    0.7810   24.7270 N.pl3   1  UNL1       -0.3013
     25 C           9.3460    1.4080   26.0230 C.3     1  UNL1        0.1573
     26 C           9.6390    0.4290   27.1120 C.ar    1  UNL1        0.1592
     27 N           9.8400    0.7880   28.4160 N.ar    1  UNL1       -0.2258
     28 C          10.0280   -0.3600   29.1310 C.ar    1  UNL1        0.1209
     29 C           9.9350   -1.3950   28.2250 C.ar    1  UNL1        0.1209
     30 N           9.6960   -0.9000   26.9610 N.ar    1  UNL1       -0.2258
@<TRIPOS>BOND
     1     2     1    2
     2     3     2   am
     3     4     3    1
     4     5     4   ar
     5     6     5   ar
     6     7     6   ar
     7     8     7   ar
     8     9     8   ar
     9    10     9   ar
    10    10     5   ar
    11    11    10   ar
    12    12    11   ar
    13    13    12   ar
    14    13     4   ar
    15    14     2    1
    16    15    14    1
    17    16    15   ar
    18    17    16   ar
    19    18    17   ar
    20    19    15   ar
    21    20    19   ar
    22    20    18   ar
    23    21    20    1
    24    22    14    1
    25    23    22    1
    26    24    23    1
    27    24    16    1
    28    25    24    1
    29    26    25    1
    30    27    26   ar
    31    28    27   ar
    32    29    28   ar
    33    30    26   ar
    34    30    29   ar
