
     RDKit          3D

 30 34  0  0  0  0  0  0  0  0999 V2000
    8.4960    1.0930   21.3170 O   0  0  0  0  0  0  0  0  0  0  0  0
    8.2150   -0.1020   21.3500 C   0  0  0  0  0  0  0  0  0  0  0  0
    7.5770   -0.7340   20.3440 N   0  0  0  0  0  0  0  0  0  0  0  0
    6.5570   -0.2730   19.4880 C   0  0  0  0  0  0  0  0  0  0  0  0
    5.5590    0.6430   19.9580 C   0  0  0  0  0  0  0  0  0  0  0  0
    5.1550    0.7380   21.3160 C   0  0  0  0  0  0  0  0  0  0  0  0
    4.0880    1.5080   21.6810 C   0  0  0  0  0  0  0  0  0  0  0  0
    3.3790    2.2310   20.7340 C   0  0  0  0  0  0  0  0  0  0  0  0
    3.7290    2.1800   19.4160 C   0  0  0  0  0  0  0  0  0  0  0  0
    4.8170    1.3770   18.9890 C   0  0  0  0  0  0  0  0  0  0  0  0
    5.1200    1.1630   17.6250 C   0  0  0  0  0  0  0  0  0  0  0  0
    6.0190    0.2950   17.1920 N   0  0  0  0  0  0  0  0  0  0  0  0
    6.6930   -0.4060   18.1100 C   0  0  0  0  0  0  0  0  0  0  0  0
    8.6660   -1.0130   22.4920 C   0  0  1  0  0  0  0  0  0  0  0  0
   10.0680   -0.6320   22.9270 C   0  0  0  0  0  0  0  0  0  0  0  0
   10.2630    0.3370   23.9190 C   0  0  0  0  0  0  0  0  0  0  0  0
   11.5350    0.8510   24.1640 C   0  0  0  0  0  0  0  0  0  0  0  0
   12.6200    0.3810   23.4420 C   0  0  0  0  0  0  0  0  0  0  0  0
   11.1740   -1.1280   22.2440 C   0  0  0  0  0  0  0  0  0  0  0  0
   12.4270   -0.6140   22.5070 C   0  0  0  0  0  0  0  0  0  0  0  0
   13.7950   -1.2450   21.6320 Cl  0  0  0  0  0  0  0  0  0  0  0  0
    7.6830   -0.9210   23.6720 C   0  0  0  0  0  0  0  0  0  0  0  0
    7.7730    0.4380   24.3670 C   0  0  0  0  0  0  0  0  0  0  0  0
    9.1520    0.7810   24.7270 N   0  0  0  0  0  0  0  0  0  0  0  0
    9.3460    1.4080   26.0230 C   0  0  0  0  0  0  0  0  0  0  0  0
    9.6390    0.4290   27.1120 C   0  0  0  0  0  0  0  0  0  0  0  0
    9.8400    0.7880   28.4160 N   0  0  0  0  0  0  0  0  0  0  0  0
   10.0280   -0.3600   29.1310 C   0  0  0  0  0  0  0  0  0  0  0  0
    9.9350   -1.3950   28.2250 C   0  0  0  0  0  0  0  0  0  0  0  0
    9.6960   -0.9000   26.9610 N   0  0  0  0  0  0  0  0  0  0  0  0
  2  1  2  0
  3  2  1  0
  4  3  1  0
  5  4  1  0
  6  5  2  0
  7  6  1  0
  8  7  2  0
  9  8  1  0
 10  9  2  0
 10  5  1  0
 11 10  1  0
 12 11  2  0
 13 12  1  0
 13  4  2  0
 14  2  1  6
 15 14  1  0
 16 15  1  0
 17 16  2  0
 18 17  1  0
 19 15  2  0
 20 19  1  0
 20 18  2  0
 21 20  1  0
 22 14  1  0
 23 22  1  0
 24 23  1  0
 24 16  1  0
 25 24  1  0
 26 25  1  0
 27 26  2  0
 28 27  1  0
 29 28  2  0
 30 26  1  0
 30 29  1  0
M  END
