@<TRIPOS>MOLECULE
*****
 24 27 0 0 0
SMALL
GASTEIGER

@<TRIPOS>ATOM
      1 O         -19.4930    4.9060   29.2970 O.2     1  UNL1       -0.2726
      2 C         -20.3350    4.8640   28.4020 C.2     1  UNL1        0.2493
      3 C         -21.8360    4.9080   28.6920 C.3     1  UNL1        0.1038
      4 C         -22.3400    6.3640   28.6270 C.3     1  UNL1        0.0369
      5 C         -22.0180    7.1030   29.9100 C.3     1  UNL1        0.1130
      6 N         -22.5770    6.3830   31.0420 N.pl3   1  UNL1       -0.2379
      7 C         -22.0890    4.2410   30.0300 C.ar    1  UNL1        0.0020
      8 C         -22.4100    5.0200   31.1550 C.ar    1  UNL1        0.0618
      9 C         -22.5810    4.4050   32.3990 C.ar    1  UNL1        0.0166
     10 C         -22.4410    3.0360   32.5310 C.ar    1  UNL1        0.0127
     11 C         -21.9790    2.8600   30.1750 C.ar    1  UNL1        0.0089
     12 C         -22.1640    2.2800   31.4140 C.ar    1  UNL1        0.0575
     13 CL        -22.0570    0.5470   31.5610 Cl      1  UNL1       -0.0823
     14 N         -20.0210    4.8200   27.0890 N.am    1  UNL1       -0.1774
     15 C         -18.7400    4.9480   26.5070 C.ar    1  UNL1        0.0925
     16 C         -18.3010    6.2480   26.0950 C.ar    1  UNL1        0.0184
     17 C         -19.1170    7.4100   26.1490 C.ar    1  UNL1        0.0014
     18 C         -18.6280    8.6280   25.7760 C.ar    1  UNL1        0.0000
     19 C         -17.3200    8.7610   25.3270 C.ar    1  UNL1        0.0001
     20 C         -16.5010    7.6690   25.2330 C.ar    1  UNL1        0.0016
     21 C         -16.9690    6.3850   25.6090 C.ar    1  UNL1        0.0204
     22 C         -16.1690    5.2160   25.5430 C.ar    1  UNL1        0.0989
     23 N         -16.5840    4.0080   25.9130 N.ar    1  UNL1       -0.2410
     24 C         -17.8370    3.8970   26.3760 C.ar    1  UNL1        0.1154
@<TRIPOS>BOND
     1     2     1    2
     2     3     2    1
     3     4     3    1
     4     5     4    1
     5     6     5    1
     6     7     3    1
     7     8     7   ar
     8     8     6    1
     9     9     8   ar
    10    10     9   ar
    11    11     7   ar
    12    12    11   ar
    13    12    10   ar
    14    13    12    1
    15    14     2   am
    16    15    14    1
    17    16    15   ar
    18    17    16   ar
    19    18    17   ar
    20    19    18   ar
    21    20    19   ar
    22    21    20   ar
    23    21    16   ar
    24    22    21   ar
    25    23    22   ar
    26    24    23   ar
    27    24    15   ar
