@<TRIPOS>MOLECULE
*****
 32 35 0 0 0
SMALL
GASTEIGER

@<TRIPOS>ATOM
      1 O          13.6340    7.9690   23.3290 O.2     1  UNL1       -0.1573
      2 S          12.7540    7.4520   24.3290 S.O2    1  UNL1        0.0439
      3 O          11.4210    7.9600   24.4030 O.2     1  UNL1       -0.1573
      4 C          13.5090    7.6400   25.9290 C.3     1  UNL1        0.1692
      5 C          12.5550    8.2260   26.9430 C.3     1  UNL1        0.0289
      6 N          12.6400    5.8390   24.0840 N.3     1  UNL1       -0.1559
      7 C          13.7140    5.0980   23.3960 C.3     1  UNL1        0.1168
      8 C          13.1090    3.8650   22.7120 C.3     1  UNL1        0.1099
      9 N          12.3690    3.0360   23.6750 N.pl3   1  UNL1       -0.3045
     10 C          11.3380    3.7910   24.4030 C.3     1  UNL1        0.1099
     11 C          11.9400    5.0160   25.0910 C.3     1  UNL1        0.1168
     12 C          12.1280    1.6770   23.3360 C.ar    1  UNL1        0.0485
     13 C          13.1860    0.8440   22.9500 C.ar    1  UNL1        0.0259
     14 C          12.9100   -0.4370   22.5130 C.ar    1  UNL1        0.0586
     15 CL         14.1890   -1.3790   21.7980 Cl      1  UNL1       -0.0822
     16 C          11.6280   -0.9390   22.4930 C.ar    1  UNL1        0.0077
     17 C          10.5690   -0.1290   22.8750 C.ar    1  UNL1       -0.0110
     18 C          10.8220    1.1680   23.3150 C.ar    1  UNL1        0.0108
     19 C           9.1470   -0.6080   22.6850 C.3     1  UNL1        0.1135
     20 C           8.5070    0.0730   21.4910 C.2     1  UNL1        0.2500
     21 O           8.9680    1.1100   21.0180 O.2     1  UNL1       -0.2726
     22 N           7.4000   -0.5340   21.0090 N.am    1  UNL1       -0.1773
     23 C           6.5970   -0.0990   19.9360 C.ar    1  UNL1        0.0925
     24 C           5.4780    0.7440   20.2170 C.ar    1  UNL1        0.0184
     25 C           4.9910    1.0020   21.5240 C.ar    1  UNL1        0.0014
     26 C           3.9290    1.8340   21.7280 C.ar    1  UNL1        0.0000
     27 C           3.2960    2.4470   20.6570 C.ar    1  UNL1        0.0001
     28 C           3.7270    2.2300   19.3810 C.ar    1  UNL1        0.0016
     29 C           4.8260    1.3740   19.1250 C.ar    1  UNL1        0.0204
     30 C           5.3210    1.1180   17.8260 C.ar    1  UNL1        0.0989
     31 N           6.3420    0.3170   17.5610 N.ar    1  UNL1       -0.2410
     32 C           6.9450   -0.2760   18.5980 C.ar    1  UNL1        0.1154
@<TRIPOS>BOND
     1     2     1    2
     2     3     2    2
     3     2     4    1
     4     5     4    1
     5     6     2    1
     6     7     6    1
     7     8     7    1
     8     9     8    1
     9    10     9    1
    10    11    10    1
    11    11     6    1
    12    12     9    1
    13    13    12   ar
    14    14    13   ar
    15    15    14    1
    16    16    14   ar
    17    17    16   ar
    18    18    17   ar
    19    18    12   ar
    20    19    17    1
    21    20    19    1
    22    21    20    2
    23    22    20   am
    24    23    22    1
    25    24    23   ar
    26    25    24   ar
    27    26    25   ar
    28    27    26   ar
    29    28    27   ar
    30    29    28   ar
    31    29    24   ar
    32    30    29   ar
    33    31    30   ar
    34    32    31   ar
    35    32    23   ar
