
     RDKit          3D

 33 37  0  0  0  0  0  0  0  0999 V2000
    9.2080    6.9260   22.2380 N   0  0  0  0  0  0  0  0  0  0  0  0
    8.4130    6.1700   22.5490 C   0  0  0  0  0  0  0  0  0  0  0  0
    7.3960    5.2020   22.9960 C   0  0  2  0  0  0  0  0  0  0  0  0
    7.4460    4.8730   24.5100 C   0  0  0  0  0  0  0  0  0  0  0  0
    7.6500    3.6960   22.7350 C   0  0  0  0  0  0  0  0  0  0  0  0
    7.8800    3.4840   24.1910 N   0  0  0  0  0  0  0  0  0  0  0  0
    7.7440    2.1450   25.0600 S   0  0  1  0  0  0  0  0  0  0  0  0
    8.1340    2.4580   26.3890 O   0  0  0  0  0  0  0  0  0  0  0  0
    6.4640    1.5840   24.7880 O   0  0  0  0  0  0  0  0  0  0  0  0
    8.8530    1.1620   24.4440 N   0  0  0  0  0  0  0  0  0  0  0  0
   10.2390    1.1890   24.9240 C   0  0  0  0  0  0  0  0  0  0  0  0
    8.3990   -0.1830   24.0490 C   0  0  0  0  0  0  0  0  0  0  0  0
    9.1670   -0.6380   22.8070 C   0  0  2  0  0  0  0  0  0  0  0  0
   10.6590   -0.4120   22.9770 C   0  0  0  0  0  0  0  0  0  0  0  0
   11.1510    0.4480   23.9740 C   0  0  0  0  0  0  0  0  0  0  0  0
   12.5290    0.6130   24.1070 C   0  0  0  0  0  0  0  0  0  0  0  0
   13.4120   -0.0440   23.2740 C   0  0  0  0  0  0  0  0  0  0  0  0
   11.5580   -1.0820   22.1480 C   0  0  0  0  0  0  0  0  0  0  0  0
   12.9160   -0.8820   22.3050 C   0  0  0  0  0  0  0  0  0  0  0  0
   14.0190   -1.6650   21.2110 Cl  0  0  0  0  0  0  0  0  0  0  0  0
    8.6860    0.1010   21.5570 C   0  0  0  0  0  0  0  0  0  0  0  0
    9.2380    1.1170   21.1450 O   0  0  0  0  0  0  0  0  0  0  0  0
    7.5650   -0.4130   20.9990 N   0  0  0  0  0  0  0  0  0  0  0  0
    6.7950    0.1130   19.9380 C   0  0  0  0  0  0  0  0  0  0  0  0
    5.6030    0.8420   20.2560 C   0  0  0  0  0  0  0  0  0  0  0  0
    5.1710    1.1040   21.5820 C   0  0  0  0  0  0  0  0  0  0  0  0
    4.0660    1.8710   21.8230 C   0  0  0  0  0  0  0  0  0  0  0  0
    3.3330    2.4090   20.7700 C   0  0  0  0  0  0  0  0  0  0  0  0
    3.6970    2.1710   19.4750 C   0  0  0  0  0  0  0  0  0  0  0  0
    4.8390    1.3830   19.1810 C   0  0  0  0  0  0  0  0  0  0  0  0
    5.3030    1.1560   17.8610 C   0  0  0  0  0  0  0  0  0  0  0  0
    6.4110    0.4890   17.5670 N   0  0  0  0  0  0  0  0  0  0  0  0
    7.1230   -0.0120   18.5870 C   0  0  0  0  0  0  0  0  0  0  0  0
  2  1  3  0
  3  2  1  1
  4  3  1  0
  5  3  1  0
  6  5  1  0
  6  4  1  0
  7  6  1  6
  8  7  2  0
  9  7  2  0
 10  7  1  0
 11 10  1  0
 12 10  1  0
 13 12  1  0
 14 13  1  0
 15 14  2  0
 15 11  1  0
 16 15  1  0
 17 16  2  0
 18 14  1  0
 19 18  2  0
 19 17  1  0
 20 19  1  0
 13 21  1  6
 22 21  2  0
 23 21  1  0
 24 23  1  0
 25 24  1  0
 26 25  2  0
 27 26  1  0
 28 27  2  0
 29 28  1  0
 30 29  2  0
 30 25  1  0
 31 30  1  0
 32 31  2  0
 33 32  1  0
 33 24  2  0
M  END
> <BADATOMS>
15;14
> <BADCOMMENTS>
Weak Density;Weak Density