@<TRIPOS>MOLECULE
*****
 33 37 0 0 0
SMALL
GASTEIGER

@<TRIPOS>ATOM
      1 N           9.2080    6.9260   22.2380 N.1     1  UNL1       -0.1958
      2 C           8.4130    6.1700   22.5490 C.1     1  UNL1        0.0751
      3 C           7.3960    5.2020   22.9960 C.3     1  UNL1        0.1268
      4 C           7.4460    4.8730   24.5100 C.3     1  UNL1        0.1134
      5 C           7.6500    3.6960   22.7350 C.3     1  UNL1        0.1134
      6 N           7.8800    3.4840   24.1910 N.3     1  UNL1       -0.1431
      7 S           7.7440    2.1450   25.0600 S.O2    1  UNL1        0.1024
      8 O           8.1340    2.4580   26.3890 O.2     1  UNL1       -0.1408
      9 O           6.4640    1.5840   24.7880 O.2     1  UNL1       -0.1408
     10 N           8.8530    1.1620   24.4440 N.3     1  UNL1       -0.1401
     11 C          10.2390    1.1890   24.9240 C.3     1  UNL1        0.1229
     12 C           8.3990   -0.1830   24.0490 C.3     1  UNL1        0.1108
     13 C           9.1670   -0.6380   22.8070 C.3     1  UNL1        0.1182
     14 C          10.6590   -0.4120   22.9770 C.ar    1  UNL1       -0.0142
     15 C          11.1510    0.4480   23.9740 C.ar    1  UNL1       -0.0078
     16 C          12.5290    0.6130   24.1070 C.ar    1  UNL1       -0.0023
     17 C          13.4120   -0.0440   23.2740 C.ar    1  UNL1        0.0111
     18 C          11.5580   -1.0820   22.1480 C.ar    1  UNL1        0.0074
     19 C          12.9160   -0.8820   22.3050 C.ar    1  UNL1        0.0574
     20 CL         14.0190   -1.6650   21.2110 Cl      1  UNL1       -0.0823
     21 C           8.6860    0.1010   21.5570 C.2     1  UNL1        0.2507
     22 O           9.2380    1.1170   21.1450 O.2     1  UNL1       -0.2726
     23 N           7.5650   -0.4130   20.9990 N.am    1  UNL1       -0.1773
     24 C           6.7950    0.1130   19.9380 C.ar    1  UNL1        0.0925
     25 C           5.6030    0.8420   20.2560 C.ar    1  UNL1        0.0184
     26 C           5.1710    1.1040   21.5820 C.ar    1  UNL1        0.0014
     27 C           4.0660    1.8710   21.8230 C.ar    1  UNL1        0.0000
     28 C           3.3330    2.4090   20.7700 C.ar    1  UNL1        0.0001
     29 C           3.6970    2.1710   19.4750 C.ar    1  UNL1        0.0016
     30 C           4.8390    1.3830   19.1810 C.ar    1  UNL1        0.0204
     31 C           5.3030    1.1560   17.8610 C.ar    1  UNL1        0.0989
     32 N           6.4110    0.4890   17.5670 N.ar    1  UNL1       -0.2410
     33 C           7.1230   -0.0120   18.5870 C.ar    1  UNL1        0.1154
@<TRIPOS>BOND
     1     2     1    3
     2     3     2    1
     3     4     3    1
     4     5     3    1
     5     6     5    1
     6     6     4    1
     7     7     6    1
     8     8     7    2
     9     9     7    2
    10    10     7    1
    11    11    10    1
    12    12    10    1
    13    13    12    1
    14    14    13    1
    15    15    14   ar
    16    15    11    1
    17    16    15   ar
    18    17    16   ar
    19    18    14   ar
    20    19    18   ar
    21    19    17   ar
    22    20    19    1
    23    13    21    1
    24    22    21    2
    25    23    21   am
    26    24    23    1
    27    25    24   ar
    28    26    25   ar
    29    27    26   ar
    30    28    27   ar
    31    29    28   ar
    32    30    29   ar
    33    30    25   ar
    34    31    30   ar
    35    32    31   ar
    36    33    32   ar
    37    33    24   ar
