@<TRIPOS>MOLECULE
*****
 23 25 0 0 0
SMALL
GASTEIGER

@<TRIPOS>ATOM
      1 N           7.2470   -1.3700   21.5400 N.am    1  UNL1       -0.1998
      2 N           4.7830    1.6400   18.3250 N.ar    1  UNL1       -0.2079
      3 C           7.7470   -2.4090   22.4320 C.3     1  UNL1        0.1387
      4 C           5.8310    0.8620   17.9070 C.ar    1  UNL1        0.2794
      5 O           6.4150    1.1210   16.8520 O.2     1  UNL1       -0.2652
      6 C          11.9470   -1.2680   22.3650 C.ar    1  UNL1        0.0161
      7 C           9.2610   -2.3910   22.5060 C.3     1  UNL1        0.1356
      8 C          13.5510    0.3550   23.1190 C.ar    1  UNL1        0.0001
      9 C           4.0100    0.4470   21.7300 C.ar    1  UNL1        0.0016
     10 C          12.6340    0.8330   24.0390 C.ar    1  UNL1        0.0013
     11 C          11.3690    0.2710   24.1270 C.ar    1  UNL1        0.0161
     12 C           3.1050    2.3630   19.9130 C.ar    1  UNL1        0.0192
     13 C           6.2420   -0.1700   18.8090 C.ar    1  UNL1        0.0671
     14 C           4.6080    0.5380   20.4710 C.ar    1  UNL1        0.0223
     15 C           5.6790   -0.3500   20.0330 C.ar    1  UNL1        0.0613
     16 C           4.1600    1.5210   19.5650 C.ar    1  UNL1        0.0847
     17 C           2.5090    2.2340   21.1560 C.ar    1  UNL1        0.0015
     18 C           6.1080   -1.5120   20.8640 C.2     1  UNL1        0.2650
     19 N           9.7300   -1.2930   23.3340 N.pl3   1  UNL1       -0.2357
     20 O           5.4260   -2.5340   20.9380 O.2     1  UNL1       -0.2684
     21 C          13.2100   -0.6990   22.2920 C.ar    1  UNL1        0.0013
     22 C          11.0130   -0.7760   23.2790 C.ar    1  UNL1        0.0654
     23 C           2.9610    1.2910   22.0600 C.ar    1  UNL1        0.0001
@<TRIPOS>BOND
     1     3     1    1
     2     4     2   ar
     3     5     4    2
     4     7     3    1
     5    10     8   ar
     6    11    10   ar
     7    13     4   ar
     8    14     9   ar
     9    15    14   ar
    10    15    13   ar
    11    16    14   ar
    12    16    12   ar
    13    16     2   ar
    14    17    12   ar
    15    18    15    1
    16    18     1   am
    17    19     7    1
    18    20    18    2
    19    21     8   ar
    20    21     6   ar
    21    22    19    1
    22    22    11   ar
    23    22     6   ar
    24    23    17   ar
    25    23     9   ar
