@<TRIPOS>MOLECULE
*****
 19 20 0 0 0
SMALL
GASTEIGER

@<TRIPOS>ATOM
      1 CL         13.8180   -1.8970   21.2020 Cl      1  UNL1       -0.0823
      2 C          12.6510   -1.1080   22.2250 C.ar    1  UNL1        0.0574
      3 C          13.0840   -0.1900   23.1590 C.ar    1  UNL1        0.0114
      4 C          12.1430    0.4150   23.9780 C.ar    1  UNL1        0.0006
      5 C          10.7950    0.1240   23.8260 C.ar    1  UNL1       -0.0037
      6 C          11.3160   -1.4080   22.0630 C.ar    1  UNL1        0.0076
      7 C          10.3660   -0.7690   22.8500 C.ar    1  UNL1       -0.0122
      8 C           8.8940   -1.0020   22.5910 C.3     1  UNL1        0.1135
      9 C           8.4150   -0.1930   21.4010 C.2     1  UNL1        0.2500
     10 O           8.9420    0.8750   21.0830 O.2     1  UNL1       -0.2726
     11 N           7.3230   -0.6900   20.7880 N.am    1  UNL1       -0.1776
     12 C           6.6440   -0.0010   19.7500 C.ar    1  UNL1        0.0898
     13 C           5.5650    0.8510   20.0370 C.ar    1  UNL1        0.0133
     14 C           5.1060    1.0850   21.4560 C.3     1  UNL1        0.0339
     15 C           7.0830   -0.1570   18.4430 C.ar    1  UNL1        0.1152
     16 N           6.5120    0.4700   17.4150 N.ar    1  UNL1       -0.2396
     17 C           5.4790    1.2780   17.6790 C.ar    1  UNL1        0.1166
     18 C           4.9700    1.4940   18.9790 C.ar    1  UNL1        0.1055
     19 N           3.8920    2.3570   19.1220 N.pl3   1  UNL1       -0.1267
@<TRIPOS>BOND
     1     2     1    1
     2     3     2   ar
     3     4     3   ar
     4     5     4   ar
     5     6     2   ar
     6     7     5   ar
     7     7     6   ar
     8     8     7    1
     9     9     8    1
    10    10     9    2
    11    11     9   am
    12    12    11    1
    13    13    12   ar
    14    14    13    1
    15    15    12   ar
    16    16    15   ar
    17    17    16   ar
    18    18    17   ar
    19    18    13   ar
    20    19    18    1
