@<TRIPOS>MOLECULE
*****
 30 31 0 0 0
SMALL
GASTEIGER

@<TRIPOS>ATOM
      1 O           9.3830    1.1800   20.9910 O.2     1  UNL1       -0.2712
      2 C           8.4810    1.0040   21.8000 C.2     1  UNL1        0.2642
      3 N           8.3970    1.7050   22.9310 N.am    1  UNL1       -0.2037
      4 C           9.3990    2.6930   23.3160 C.3     1  UNL1        0.1178
      5 C          10.7650    2.0670   23.5650 C.3     1  UNL1        0.0555
      6 C          11.8630    3.0580   23.8670 C.3     1  UNL1        0.1441
      7 O          12.0040    4.0650   22.8880 O.3     1  UNL1       -0.3510
      8 C          13.2970    4.6600   22.9210 C.3     1  UNL1        0.1741
      9 C           7.3640   -0.0120   21.5040 C.3     1  UNL1        0.1817
     10 C           6.6910    0.2640   20.1680 C.ar    1  UNL1        0.0241
     11 C           5.5250    1.0160   20.1020 C.ar    1  UNL1        0.0010
     12 C           5.0240    1.4130   18.8770 C.ar    1  UNL1        0.0204
     13 C           5.7120    1.0380   17.7360 C.ar    1  UNL1        0.0989
     14 N           6.8290    0.3040   17.7600 N.ar    1  UNL1       -0.2426
     15 C           7.2850   -0.0780   18.9590 C.ar    1  UNL1        0.0967
     16 N           7.7330   -1.4300   21.7860 N.am    1  UNL1       -0.2480
     17 C           6.8680   -2.4380   21.4580 C.2     1  UNL1        0.2299
     18 O           5.7330   -2.2090   21.0760 O.2     1  UNL1       -0.2745
     19 C           7.3000   -3.8710   21.6700 C.3     1  UNL1        0.0857
     20 C           8.2960   -4.4490   20.6410 C.3     1  UNL1        0.0101
     21 C           8.9770   -1.6830   22.4660 C.ar    1  UNL1        0.0545
     22 C           9.0080   -1.8170   23.8530 C.ar    1  UNL1        0.0146
     23 C          10.2180   -1.9840   24.5090 C.ar    1  UNL1       -0.0030
     24 C          11.4210   -2.0040   23.8070 C.ar    1  UNL1       -0.0227
     25 C          12.7600   -2.0350   24.5560 C.3     1  UNL1        0.0189
     26 C          12.9680   -0.6910   25.2460 C.3     1  UNL1        0.0044
     27 C          12.7800   -3.1580   25.6060 C.3     1  UNL1        0.0044
     28 C          13.9520   -2.2530   23.6140 C.3     1  UNL1        0.0044
     29 C          11.3750   -1.8890   22.4190 C.ar    1  UNL1       -0.0030
     30 C          10.1710   -1.7340   21.7530 C.ar    1  UNL1        0.0146
@<TRIPOS>BOND
     1     2     1    2
     2     3     2   am
     3     4     3    1
     4     5     4    1
     5     6     5    1
     6     7     6    1
     7     8     7    1
     8     9     2    1
     9    10     9    1
    10    11    10   ar
    11    12    11   ar
    12    13    12   ar
    13    14    13   ar
    14    15    14   ar
    15    15    10   ar
    16    16     9    1
    17    17    16   am
    18    18    17    2
    19    19    17    1
    20    20    19    1
    21    21    16    1
    22    22    21   ar
    23    23    22   ar
    24    24    23   ar
    25    25    24    1
    26    25    26    1
    27    27    25    1
    28    28    25    1
    29    29    24   ar
    30    30    21   ar
    31    30    29   ar
