@<TRIPOS>MOLECULE
*****
 27 31 0 0 0
SMALL
GASTEIGER

@<TRIPOS>ATOM
      1 O           8.7600    1.0760   21.0550 O.2     1  UNL1       -0.2738
      2 C           8.2610    0.0320   21.4310 C.2     1  UNL1        0.2387
      3 C           8.6350   -0.7460   22.6970 C.3     1  UNL1        0.1035
      4 C           7.8850   -0.1040   23.8870 C.3     1  UNL1        0.0606
      5 C           8.6750    1.0280   24.5030 C.3     1  UNL1        0.2062
      6 O           9.9620    0.5720   24.9570 O.3     1  UNL1       -0.4757
      7 C          10.1520   -0.7630   22.9270 C.ar    1  UNL1        0.0208
      8 C          10.7170   -0.0500   23.9920 C.ar    1  UNL1        0.1350
      9 C          12.0900    0.0430   24.1560 C.ar    1  UNL1        0.0374
     10 C          12.9250   -0.5930   23.2570 C.ar    1  UNL1        0.0145
     11 C          11.0090   -1.4210   22.0470 C.ar    1  UNL1        0.0106
     12 C          12.3790   -1.3180   22.2250 C.ar    1  UNL1        0.0576
     13 CL         13.4410   -2.1150   21.0950 Cl      1  UNL1       -0.0823
     14 N           7.2400   -0.6740   20.7830 N.am    1  UNL1       -0.2063
     15 C           6.9960   -1.9200   21.3620 C.2     1  UNL1        0.2360
     16 O           6.0690   -2.6530   21.0520 O.2     1  UNL1       -0.2741
     17 C           8.0240   -2.1390   22.4360 C.3     1  UNL1        0.0989
     18 C           6.4540   -0.1300   19.7030 C.ar    1  UNL1        0.0797
     19 C           5.4090    0.7920   20.0000 C.ar    1  UNL1        0.0171
     20 C           4.9090    1.0420   21.3050 C.ar    1  UNL1        0.0013
     21 C           3.9090    1.9490   21.5120 C.ar    1  UNL1        0.0000
     22 C           3.3560    2.6480   20.4480 C.ar    1  UNL1        0.0001
     23 C           3.7990    2.4410   19.1730 C.ar    1  UNL1        0.0016
     24 C           4.8340    1.5100   18.9120 C.ar    1  UNL1        0.0204
     25 C           5.3380    1.2530   17.6120 C.ar    1  UNL1        0.0989
     26 N           6.3150    0.3950   17.3470 N.ar    1  UNL1       -0.2410
     27 C           6.8530   -0.2720   18.3790 C.ar    1  UNL1        0.1141
@<TRIPOS>BOND
     1     2     1    2
     2     3     2    1
     3     3     4    1
     4     5     4    1
     5     6     5    1
     6     7     3    1
     7     8     7   ar
     8     8     6    1
     9     9     8   ar
    10    10     9   ar
    11    11     7   ar
    12    12    11   ar
    13    12    10   ar
    14    13    12    1
    15    14     2   am
    16    15    14   am
    17    16    15    2
    18    17    15    1
    19    17     3    1
    20    18    14    1
    21    19    18   ar
    22    20    19   ar
    23    21    20   ar
    24    22    21   ar
    25    23    22   ar
    26    24    23   ar
    27    24    19   ar
    28    25    24   ar
    29    26    25   ar
    30    27    26   ar
    31    27    18   ar
