@<TRIPOS>MOLECULE
*****
 24 27 0 0 0
SMALL
GASTEIGER

@<TRIPOS>ATOM
      1 O           9.1600    0.8370   20.9780 O.2     1  UNL1       -0.2726
      2 C           8.6010   -0.2000   21.3310 C.2     1  UNL1        0.2493
      3 C           9.0810   -1.0170   22.5300 C.3     1  UNL1        0.1038
      4 C           8.2380   -0.7430   23.7850 C.3     1  UNL1        0.0369
      5 C           8.5000    0.6570   24.3080 C.3     1  UNL1        0.1130
      6 N           9.9280    0.8800   24.4960 N.pl3   1  UNL1       -0.2379
      7 C          10.5380   -0.6850   22.7640 C.ar    1  UNL1        0.0020
      8 C          10.8940    0.2660   23.7320 C.ar    1  UNL1        0.0618
      9 C          12.2320    0.6390   23.8780 C.ar    1  UNL1        0.0166
     10 C          13.2050    0.0720   23.0720 C.ar    1  UNL1        0.0127
     11 C          11.5270   -1.2630   21.9820 C.ar    1  UNL1        0.0089
     12 C          12.8380   -0.8780   22.1420 C.ar    1  UNL1        0.0575
     13 CL         14.0550   -1.6170   21.1480 Cl      1  UNL1       -0.0823
     14 N           7.5200   -0.7090   20.7070 N.am    1  UNL1       -0.1774
     15 C           6.7760   -0.1150   19.6750 C.ar    1  UNL1        0.0925
     16 C           5.6100    0.6260   20.0330 C.ar    1  UNL1        0.0184
     17 C           5.1030    0.7090   21.3540 C.ar    1  UNL1        0.0014
     18 C           3.9710    1.4220   21.6270 C.ar    1  UNL1        0.0000
     19 C           3.2950    2.0890   20.6170 C.ar    1  UNL1        0.0001
     20 C           3.7510    2.0510   19.3320 C.ar    1  UNL1        0.0016
     21 C           4.9160    1.3150   19.0030 C.ar    1  UNL1        0.0204
     22 C           5.4250    1.2120   17.6860 C.ar    1  UNL1        0.0989
     23 N           6.5060    0.5140   17.3550 N.ar    1  UNL1       -0.2410
     24 C           7.1530   -0.1290   18.3340 C.ar    1  UNL1        0.1154
@<TRIPOS>BOND
     1     2     1    2
     2     3     2    1
     3     4     3    1
     4     5     4    1
     5     6     5    1
     6     7     3    1
     7     8     7   ar
     8     8     6    1
     9     9     8   ar
    10    10     9   ar
    11    11     7   ar
    12    12    11   ar
    13    12    10   ar
    14    13    12    1
    15    14     2   am
    16    15    14    1
    17    16    15   ar
    18    17    16   ar
    19    18    17   ar
    20    19    18   ar
    21    20    19   ar
    22    21    20   ar
    23    21    16   ar
    24    22    21   ar
    25    23    22   ar
    26    24    23   ar
    27    24    15   ar
