@<TRIPOS>MOLECULE
*****
 21 23 0 0 0
SMALL
GASTEIGER

@<TRIPOS>ATOM
      1 CL         13.9360   -1.8550   21.2690 Cl      1  UNL1       -0.0823
      2 C          12.7880   -1.0140   22.2560 C.ar    1  UNL1        0.0576
      3 C          13.2350   -0.0210   23.1120 C.ar    1  UNL1        0.0145
      4 C          12.3230    0.6700   23.8890 C.ar    1  UNL1        0.0374
      5 C          11.4560   -1.3460   22.1550 C.ar    1  UNL1        0.0107
      6 C          10.5390   -0.6330   22.9100 C.ar    1  UNL1        0.0247
      7 C          10.9830    0.3640   23.7560 C.ar    1  UNL1        0.1352
      8 O           9.9190    1.0320   24.3250 O.3     1  UNL1       -0.4749
      9 C           8.7330    0.2040   24.1510 C.3     1  UNL1        0.2189
     10 C           9.0340   -0.6560   22.9250 C.3     1  UNL1        0.1472
     11 C           8.5880    0.0400   21.6410 C.2     1  UNL1        0.2530
     12 O           9.1240    1.0680   21.2300 O.2     1  UNL1       -0.2725
     13 N           7.5440   -0.5410   21.0450 N.am    1  UNL1       -0.1775
     14 C           6.8400    0.0470   19.9830 C.ar    1  UNL1        0.0910
     15 C           5.6530    0.7400   20.2520 C.ar    1  UNL1        0.0290
     16 C           5.1480    0.9240   21.6640 C.3     1  UNL1        0.2100
     17 O           4.0120    1.7780   21.7470 O.3     1  UNL1       -0.2151
     18 C           7.3000   -0.0210   18.6730 C.ar    1  UNL1        0.1151
     19 N           6.6480    0.5290   17.6480 N.ar    1  UNL1       -0.2410
     20 C           5.5060    1.1740   17.9110 C.ar    1  UNL1        0.0987
     21 C           4.9740    1.2970   19.1780 C.ar    1  UNL1        0.0202
@<TRIPOS>BOND
     1     2     1    1
     2     3     2   ar
     3     4     3   ar
     4     5     2   ar
     5     6     5   ar
     6     7     6   ar
     7     7     4   ar
     8     8     7    1
     9     9     8    1
    10    10     9    1
    11    10     6    1
    12    10    11    1
    13    12    11    2
    14    13    11   am
    15    14    13    1
    16    15    14   ar
    17    16    15    1
    18    17    16    1
    19    18    14   ar
    20    19    18   ar
    21    20    19   ar
    22    21    20   ar
    23    21    15   ar
