@<TRIPOS>MOLECULE
*****
 27 30 0 0 0
SMALL
GASTEIGER

@<TRIPOS>ATOM
      1 F           3.8410    2.3150   23.0670 F       1  UNL1       -0.2042
      2 C           4.2810    2.0130   21.8190 C.ar    1  UNL1        0.1402
      3 C           3.5260    2.4340   20.7510 C.ar    1  UNL1        0.0297
      4 C           3.9280    2.1130   19.4900 C.ar    1  UNL1        0.0039
      5 C           5.4240    1.2900   21.6950 C.ar    1  UNL1        0.0310
      6 C           5.8710    0.9300   20.3980 C.ar    1  UNL1        0.0206
      7 C           5.1070    1.3580   19.2750 C.ar    1  UNL1        0.0206
      8 C           5.5780    1.0160   17.9850 C.ar    1  UNL1        0.0989
      9 N           6.6890    0.3310   17.7540 N.ar    1  UNL1       -0.2410
     10 C           7.3960   -0.0750   18.8160 C.ar    1  UNL1        0.1154
     11 C           7.0610    0.1750   20.1500 C.ar    1  UNL1        0.0926
     12 N           7.8650   -0.2210   21.2440 N.am    1  UNL1       -0.1754
     13 C           9.0310    0.3540   21.6280 C.2     1  UNL1        0.2742
     14 O           9.5210    1.3230   21.0650 O.2     1  UNL1       -0.2701
     15 C           9.7300   -0.2380   22.8940 C.3     1  UNL1        0.1877
     16 O           9.2340   -1.5650   23.0790 O.3     1  UNL1       -0.3428
     17 C           9.9180   -2.6320   22.4080 C.3     1  UNL1        0.1750
     18 C          11.2420   -0.1260   22.8830 C.ar    1  UNL1        0.0453
     19 C          12.0020   -0.6940   21.8620 C.ar    1  UNL1        0.0129
     20 C          13.3670   -0.4750   21.8310 C.ar    1  UNL1        0.0576
     21 CL         14.3310   -1.3460   20.6730 Cl      1  UNL1       -0.0823
     22 C          13.9940    0.3470   22.7420 C.ar    1  UNL1        0.0145
     23 C          13.2510    0.9250   23.7560 C.ar    1  UNL1        0.0375
     24 C          11.8920    0.6650   23.8330 C.ar    1  UNL1        0.1372
     25 O          11.2440    1.1880   24.9250 O.3     1  UNL1       -0.4756
     26 C           9.8850    1.5770   24.6610 C.3     1  UNL1        0.2087
     27 C           9.0540    0.4440   24.0950 C.3     1  UNL1        0.0879
@<TRIPOS>BOND
     1     2     1    1
     2     3     2   ar
     3     4     3   ar
     4     5     2   ar
     5     6     5   ar
     6     7     4   ar
     7     7     6   ar
     8     8     7   ar
     9     9     8   ar
    10    10     9   ar
    11    11    10   ar
    12    11     6   ar
    13    12    11    1
    14    13    12   am
    15    14    13    2
    16    15    13    1
    17    15    16    1
    18    17    16    1
    19    18    15    1
    20    19    18   ar
    21    20    19   ar
    22    21    20    1
    23    22    20   ar
    24    23    22   ar
    25    24    23   ar
    26    24    18   ar
    27    25    24    1
    28    26    25    1
    29    27    26    1
    30    27    15    1
