@<TRIPOS>MOLECULE
*****
 17 18 0 0 0
SMALL
GASTEIGER

@<TRIPOS>ATOM
      1 N          21.3450    7.5120   22.5380 N.pl3   1  UNL1       -0.1281
      2 C          21.8690    6.4370   23.2350 C.ar    1  UNL1        0.0892
      3 O          22.3360    2.0730   25.8810 O.2     1  UNL1       -0.1483
      4 C          21.5170    6.2460   24.6050 C.ar    1  UNL1        0.0194
      5 C          25.9430    5.6120   28.9540 C.ar    1  UNL1        0.1004
      6 C          22.0380    5.1690   25.3160 C.ar    1  UNL1        0.0216
      7 C          22.9080    4.2280   24.7330 C.ar    1  UNL1        0.1272
      8 C          23.2490    4.4520   23.3640 C.ar    1  UNL1        0.0216
      9 C          22.7570    5.5160   22.6190 C.ar    1  UNL1        0.0194
     10 C          24.9720    4.3530   27.2530 C.ar    1  UNL1        0.1716
     11 C          25.7390    4.9550   26.2520 C.ar    1  UNL1        0.0376
     12 C          26.6300    5.9190   26.6740 C.ar    1  UNL1        0.0046
     13 C          26.7480    6.2620   28.0190 C.ar    1  UNL1        0.0208
     14 N          23.9820    3.4360   27.0340 N.pl3   1  UNL1       -0.0772
     15 N          25.0650    4.6610   28.6120 N.ar    1  UNL1       -0.2259
     16 O          24.5320    2.3510   24.8040 O.2     1  UNL1       -0.1483
     17 S          23.4550    2.8880   25.5340 S.O2    1  UNL1        0.0942
@<TRIPOS>BOND
     1     2     1    1
     2     4     2   ar
     3     6     4   ar
     4     7     6   ar
     5     8     7   ar
     6     9     8   ar
     7     9     2   ar
     8    11    10   ar
     9    12    11   ar
    10    13    12   ar
    11    13     5   ar
    12    14    10    1
    13    15    10   ar
    14    15     5   ar
    15    17    16    2
    16    17    14    1
    17    17     7    1
    18    17     3    2
