@<TRIPOS>MOLECULE
*****
 22 25 0 0 0
SMALL
GASTEIGER

@<TRIPOS>ATOM
      1 O           8.5410    0.9130   21.0870 O.2     1  UNL1       -0.2726
      2 C           8.2120   -0.2710   21.1220 C.2     1  UNL1        0.2519
      3 C           8.7340   -1.2340   22.1880 C.3     1  UNL1        0.1075
      4 C          10.2190   -1.5760   21.9430 C.3     1  UNL1        0.0610
      5 C          11.1150   -0.7600   22.8410 C.3     1  UNL1        0.2062
      6 O          10.7410   -0.9020   24.2210 O.3     1  UNL1       -0.4757
      7 C           8.4320   -0.6140   23.5390 C.ar    1  UNL1        0.0212
      8 C           9.4520   -0.5090   24.4850 C.ar    1  UNL1        0.1350
      9 C           9.2270    0.0570   25.7290 C.ar    1  UNL1        0.0374
     10 C           7.9790    0.5700   26.0310 C.ar    1  UNL1        0.0145
     11 C           7.1760   -0.0960   23.8610 C.ar    1  UNL1        0.0106
     12 C           6.9750    0.4990   25.0910 C.ar    1  UNL1        0.0576
     13 CL          5.4220    1.2070   25.4510 Cl      1  UNL1       -0.0823
     14 N           7.5350   -0.8620   20.1070 N.am    1  UNL1       -0.1430
     15 C           6.7720   -0.4030   19.0860 C.ar    1  UNL1        0.2445
     16 N           5.8220    0.5820   19.2470 N.ar    1  UNL1       -0.2815
     17 C           5.5400    1.0060   17.9800 C.ar    1  UNL1        0.2036
     18 N           6.2260    0.3400   17.1000 N.ar    1  UNL1       -0.1242
     19 N           7.0050   -0.5760   17.7960 N.ar    1  UNL1       -0.1107
     20 C           5.1610    0.9910   20.5080 C.3     1  UNL1        0.0898
     21 C           3.9230    1.8160   20.4230 C.3     1  UNL1        0.0246
     22 C           5.2020    2.4260   20.9030 C.3     1  UNL1        0.0246
@<TRIPOS>BOND
     1     2     1    2
     2     3     2    1
     3     4     3    1
     4     5     4    1
     5     6     5    1
     6     7     3    1
     7     8     7   ar
     8     8     6    1
     9     9     8   ar
    10    10     9   ar
    11    11     7   ar
    12    12    11   ar
    13    12    10   ar
    14    13    12    1
    15    14     2   am
    16    15    14    1
    17    16    15   ar
    18    17    16   ar
    19    18    17   ar
    20    19    18   ar
    21    19    15   ar
    22    20    16    1
    23    21    20    1
    24    22    21    1
    25    22    20    1
