@<TRIPOS>MOLECULE
*****
 21 22 0 0 0
SMALL
GASTEIGER

@<TRIPOS>ATOM
      1 O           8.2270    0.0940   25.1670 O.2     1  UNL1       -0.2730
      2 C           8.5110   -0.9340   24.5560 C.2     1  UNL1        0.2463
      3 C           7.6800   -2.1940   24.6950 C.3     1  UNL1        0.1146
      4 C           8.4950   -3.4220   25.0350 C.ar    1  UNL1        0.0062
      5 C           9.4000   -3.9580   24.1300 C.ar    1  UNL1        0.0951
      6 N          10.1490   -5.0420   24.3700 N.ar    1  UNL1       -0.2426
      7 C           9.9990   -5.6350   25.5600 C.ar    1  UNL1        0.0989
      8 C           9.1220   -5.1870   26.5270 C.ar    1  UNL1        0.0204
      9 C           8.3630   -4.0680   26.2520 C.ar    1  UNL1       -0.0007
     10 N           9.5260   -1.0020   23.6980 N.am    1  UNL1       -0.1951
     11 C          10.1140    0.1880   23.1260 C.3     1  UNL1        0.2017
     12 C           9.4900    0.6540   21.8220 C.2     1  UNL1        0.2677
     13 O           9.9180    1.6510   21.2580 O.2     1  UNL1       -0.2710
     14 N           8.4470   -0.0800   21.3600 N.am    1  UNL1       -0.1765
     15 C           7.5400    0.2460   20.3160 C.ar    1  UNL1        0.0886
     16 C           6.3490    0.9300   20.6340 C.ar    1  UNL1       -0.0034
     17 C           6.0450    1.3870   22.0370 C.3     1  UNL1        0.0325
     18 C           7.7630   -0.1020   18.9800 C.ar    1  UNL1        0.1151
     19 N           6.9050    0.1680   17.9870 N.ar    1  UNL1       -0.2410
     20 C           5.7770    0.8050   18.3070 C.ar    1  UNL1        0.0987
     21 C           5.4630    1.2000   19.5910 C.ar    1  UNL1        0.0177
@<TRIPOS>BOND
     1     2     1    2
     2     3     2    1
     3     4     3    1
     4     5     4   ar
     5     6     5   ar
     6     7     6   ar
     7     8     7   ar
     8     9     8   ar
     9     9     4   ar
    10    10     2   am
    11    11    10    1
    12    12    11    1
    13    13    12    2
    14    14    12   am
    15    15    14    1
    16    16    15   ar
    17    17    16    1
    18    18    15   ar
    19    19    18   ar
    20    20    19   ar
    21    21    20   ar
    22    21    16   ar
