@<TRIPOS>MOLECULE
*****
 11 11 0 0 0
SMALL
GASTEIGER

@<TRIPOS>ATOM
      1 N           9.5270    5.1070   23.0000 N.3     1  UNL1        0.0392
      2 C          12.6100    1.0520   23.1500 C.ar    1  UNL1        0.0346
      3 O          10.3670    5.1640   25.3050 O.2     1  UNL1       -0.1503
      4 C          11.3700    1.1210   23.7910 C.ar    1  UNL1        0.0081
      5 C          10.8290    2.3950   24.0540 C.ar    1  UNL1        0.0205
      6 C          11.5030    3.5810   23.6880 C.ar    1  UNL1        0.1251
      7 C          12.7490    3.4480   23.0580 C.ar    1  UNL1        0.0205
      8 C          13.3080    2.2000   22.7900 C.ar    1  UNL1        0.0081
      9 O          11.7330    6.1150   23.5100 O.2     1  UNL1       -0.1503
     10 S          10.8430    5.1060   23.9780 S.O2    1  UNL1        0.0935
     11 BR         13.4090   -0.7000   22.6920 Br      1  UNL1       -0.0490
@<TRIPOS>BOND
     1     4     2   ar
     2     5     4   ar
     3     6     5   ar
     4     7     6   ar
     5     8     7   ar
     6     8     2   ar
     7    10     3    2
     8    10     1    1
     9    10     6    1
    10    10     9    2
    11    11     2    1
