@<TRIPOS>MOLECULE
*****
 23 25 0 0 0
SMALL
GASTEIGER

@<TRIPOS>ATOM
      1 O           7.1820   -0.3940   18.1670 O.2     1  UNL1       -0.2675
      2 C           6.5540   -0.3080   19.2160 C.2     1  UNL1        0.2751
      3 C           5.4950    0.6990   19.3840 C.ar    1  UNL1        0.0848
      4 S           4.9610    1.5060   17.9800 S.2     1  UNL1       -0.0818
      5 C           3.8540    2.4340   18.8790 C.ar    1  UNL1        0.0356
      6 C           3.8810    2.1340   20.1930 C.ar    1  UNL1        0.0076
      7 C           4.8140    1.1320   20.5070 C.ar    1  UNL1        0.0116
      8 N           6.8250   -1.0710   20.3200 N.am    1  UNL1       -0.1716
      9 CA          7.8480   -2.0310   20.3930 C.2     1  UNL1        0.1163
     10 C           7.5580   -3.3110   19.8270 C.2     1  UNL1        0.2507
     11 O           6.5280   -3.6190   19.2630 O.2     1  UNL1       -0.2817
     12 C           9.0700   -1.7620   21.0090 C.2     1  UNL1        0.0265
     13 C           9.5000   -0.5510   21.6290 C.ar    1  UNL1        0.0321
     14 S           8.5890    0.9260   21.6430 S.2     1  UNL1       -0.0723
     15 C           9.7930    1.7180   22.6200 C.ar    1  UNL1        0.0784
     16 C          10.8460    0.8690   22.9080 C.ar    1  UNL1        0.0217
     17 C          10.6750   -0.4080   22.3400 C.ar    1  UNL1        0.0084
     18 N           9.6380    3.0170   23.0110 N.pl3   1  UNL1       -0.2977
     19 C          10.4710    3.4720   24.1350 C.3     1  UNL1        0.1234
     20 C          10.6300    4.9750   24.0790 C.3     1  UNL1        0.1636
     21 O           9.3590    5.6360   24.0310 O.3     1  UNL1       -0.3501
     22 C           8.6080    5.2270   22.8730 C.3     1  UNL1        0.1636
     23 C           8.3610    3.7370   22.8730 C.3     1  UNL1        0.1234
@<TRIPOS>BOND
     1     2     1    2
     2     3     2    1
     3     4     3   ar
     4     5     4   ar
     5     6     5   ar
     6     7     6   ar
     7     7     3   ar
     8     8     2   am
     9     9     8    1
    10    10     9    1
    11    11    10    2
    12    12     9    2
    13    13    12    1
    14    14    13   ar
    15    15    14   ar
    16    16    15   ar
    17    17    13   ar
    18    17    16   ar
    19    18    15    1
    20    19    18    1
    21    20    19    1
    22    21    20    1
    23    22    21    1
    24    23    22    1
    25    23    18    1
