@<TRIPOS>MOLECULE
*****
 24 26 0 0 0
SMALL
GASTEIGER

@<TRIPOS>ATOM
      1 O           5.5410   -2.6980   20.7630 O.2     1  UNL1       -0.2683
      2 C           6.2730   -1.7160   20.6940 C.2     1  UNL1        0.2664
      3 C           5.9770   -0.5680   19.7730 C.ar    1  UNL1        0.0742
      4 C           4.9940    0.4020   20.1040 C.ar    1  UNL1        0.0074
      5 C           4.3950    0.5260   21.3870 C.ar    1  UNL1        0.0002
      6 C           3.4450    1.4750   21.6280 C.ar    1  UNL1        0.0000
      7 C           3.0410    2.3410   20.6270 C.ar    1  UNL1        0.0000
      8 C           3.5970    2.2770   19.3840 C.ar    1  UNL1        0.0015
      9 C           4.5930    1.3130   19.0880 C.ar    1  UNL1        0.0193
     10 C           5.2270    1.2120   17.8280 C.ar    1  UNL1        0.0988
     11 N           6.1630    0.3170   17.5320 N.ar    1  UNL1       -0.2422
     12 C           6.5090   -0.5560   18.4850 C.ar    1  UNL1        0.1034
     13 N           7.3520   -1.5710   21.4650 N.am    1  UNL1       -0.1976
     14 C           7.6710   -2.5250   22.5190 C.3     1  UNL1        0.1626
     15 C           9.1450   -2.5540   22.8100 C.3     1  UNL1        0.2289
     16 O           9.6370   -1.2180   22.6190 O.3     1  UNL1       -0.4705
     17 C          10.9710   -0.9760   22.8120 C.ar    1  UNL1        0.1723
     18 C          11.3030    0.3480   23.1720 C.ar    1  UNL1        0.1724
     19 O          10.2370    1.1870   23.3580 O.3     1  UNL1       -0.4684
     20 C          10.5100    2.5400   23.7210 C.3     1  UNL1        0.2526
     21 C          11.9760   -1.9070   22.5970 C.ar    1  UNL1        0.0400
     22 C          13.3010   -1.5260   22.7290 C.ar    1  UNL1        0.0033
     23 C          13.6290   -0.2270   23.0820 C.ar    1  UNL1        0.0033
     24 C          12.6370    0.7150   23.3010 C.ar    1  UNL1        0.0400
@<TRIPOS>BOND
     1     2     1    2
     2     3     2    1
     3     4     3   ar
     4     5     4   ar
     5     6     5   ar
     6     7     6   ar
     7     8     7   ar
     8     9     8   ar
     9     9     4   ar
    10    10     9   ar
    11    11    10   ar
    12    12    11   ar
    13    12     3   ar
    14    13     2   am
    15    14    13    1
    16    15    14    1
    17    16    15    1
    18    17    16    1
    19    18    17   ar
    20    19    18    1
    21    20    19    1
    22    21    17   ar
    23    22    21   ar
    24    23    22   ar
    25    24    23   ar
    26    24    18   ar
