@<TRIPOS>MOLECULE
*****
 8 8 0 0 0
SMALL
GASTEIGER

@<TRIPOS>ATOM
      1 N           6.1950   -5.1510   19.7590 N.2     1  UNL1       -0.1430
      2 C           6.9470   -4.1220   19.9440 C.2     1  UNL1        0.1607
      3 C           6.6750   -3.2960   21.1790 C.ar    1  UNL1        0.1837
      4 N           7.6740   -2.5180   21.6290 N.ar    1  UNL1       -0.2236
      5 C           7.4340   -1.8060   22.7440 C.ar    1  UNL1        0.1022
      6 C           6.2360   -1.8470   23.4200 C.ar    1  UNL1        0.0414
      7 C           5.2790   -2.6840   22.8870 C.ar    1  UNL1        0.1022
      8 N           5.4690   -3.4020   21.7690 N.ar    1  UNL1       -0.2236
@<TRIPOS>BOND
     1     2     1    2
     2     3     2    1
     3     4     3   ar
     4     5     4   ar
     5     6     5   ar
     6     7     6   ar
     7     8     7   ar
     8     8     3   ar
