@<TRIPOS>MOLECULE
*****
 29 32 0 0 0
SMALL
GASTEIGER

@<TRIPOS>ATOM
      1 O           9.3850    1.3540   21.0880 O.2     1  UNL1       -0.2742
      2 C           9.1130    0.2890   21.6300 C.2     1  UNL1        0.2341
      3 C           8.1310   -0.6740   20.9900 C.3     1  UNL1        0.1134
      4 C           7.1960    0.0000   20.0140 C.ar    1  UNL1        0.0061
      5 C           7.4730    0.0150   18.6560 C.ar    1  UNL1        0.0951
      6 N           6.6520    0.5290   17.7310 N.ar    1  UNL1       -0.2426
      7 C           5.4980    1.0580   18.1590 C.ar    1  UNL1        0.0989
      8 C           5.1320    1.1040   19.4900 C.ar    1  UNL1        0.0204
      9 C           5.9990    0.5690   20.4240 C.ar    1  UNL1       -0.0007
     10 N           9.6970   -0.0930   22.8020 N.am    1  UNL1       -0.2524
     11 C          10.9060    0.6020   23.2280 C.3     1  UNL1        0.1456
     12 C          12.0560   -0.3370   23.4370 C.ar    1  UNL1        0.1005
     13 C          12.9060   -0.9400   22.4600 C.ar    1  UNL1        0.0384
     14 C          13.7090   -1.7920   23.1580 C.ar    1  UNL1        0.0964
     15 N          12.3390   -0.7860   24.6700 N.ar    1  UNL1       -0.1718
     16 N          13.3460   -1.6810   24.4820 N.ar    1  UNL1       -0.2476
     17 C          13.8870   -2.4000   25.6280 C.3     1  UNL1        0.1537
     18 C           9.2010   -1.1530   23.6250 C.ar    1  UNL1        0.0542
     19 C           9.5910   -2.4750   23.3970 C.ar    1  UNL1        0.0150
     20 C           9.2250   -3.4710   24.2850 C.ar    1  UNL1        0.0028
     21 C           8.4650   -3.1820   25.4190 C.ar    1  UNL1        0.0177
     22 C           8.0500   -1.8640   25.6150 C.ar    1  UNL1        0.0028
     23 C           8.4080   -0.8620   24.7340 C.ar    1  UNL1        0.0150
     24 C           8.1620   -4.2320   26.4220 C.ar    1  UNL1        0.0813
     25 N           9.1400   -5.1310   26.6500 N.ar    1  UNL1       -0.2438
     26 C           8.9380   -6.0350   27.6260 C.ar    1  UNL1        0.0988
     27 C           7.7910   -6.0910   28.3970 C.ar    1  UNL1        0.0207
     28 C           6.7930   -5.1750   28.1420 C.ar    1  UNL1        0.0031
     29 C           6.9680   -4.2340   27.1400 C.ar    1  UNL1        0.0191
@<TRIPOS>BOND
     1     2     1    2
     2     3     2    1
     3     4     3    1
     4     5     4   ar
     5     6     5   ar
     6     7     6   ar
     7     8     7   ar
     8     9     8   ar
     9     9     4   ar
    10    10     2   am
    11    11    10    1
    12    12    11    1
    13    13    12   ar
    14    14    13   ar
    15    15    12   ar
    16    16    15   ar
    17    16    14   ar
    18    17    16    1
    19    18    10    1
    20    19    18   ar
    21    20    19   ar
    22    21    20   ar
    23    22    21   ar
    24    23    22   ar
    25    23    18   ar
    26    24    21    1
    27    25    24   ar
    28    26    25   ar
    29    27    26   ar
    30    28    27   ar
    31    29    24   ar
    32    29    28   ar
