@<TRIPOS>MOLECULE
*****
 21 23 0 0 0
SMALL
GASTEIGER

@<TRIPOS>ATOM
      1 CL         13.8790   -1.7470   21.1630 Cl      1  UNL1       -0.0823
      2 C          12.7600   -0.9220   22.2080 C.ar    1  UNL1        0.0576
      3 C          13.2390    0.0000   23.1150 C.ar    1  UNL1        0.0145
      4 C          12.3600    0.5900   24.0050 C.ar    1  UNL1        0.0374
      5 C          11.4210   -1.2480   22.1420 C.ar    1  UNL1        0.0106
      6 C          10.5150   -0.6310   23.0030 C.ar    1  UNL1        0.0212
      7 C          11.0100    0.2760   23.9450 C.ar    1  UNL1        0.1350
      8 O          10.2090    0.8940   24.8780 O.3     1  UNL1       -0.4757
      9 C           8.8110    1.0050   24.5320 C.3     1  UNL1        0.2062
     10 C           8.2360   -0.3060   24.0600 C.3     1  UNL1        0.0610
     11 C           9.0200   -0.8200   22.8370 C.3     1  UNL1        0.1074
     12 C           8.5840   -0.0550   21.5870 C.2     1  UNL1        0.2494
     13 O           9.2180    0.9020   21.1580 O.2     1  UNL1       -0.2726
     14 N           7.4490   -0.5090   21.0170 N.am    1  UNL1       -0.1777
     15 C           6.7820    0.0850   19.9200 C.ar    1  UNL1        0.0885
     16 C           5.6290    0.8560   20.1550 C.ar    1  UNL1       -0.0034
     17 C           5.1200    1.1260   21.5480 C.3     1  UNL1        0.0325
     18 C           7.2400   -0.0510   18.6080 C.ar    1  UNL1        0.1151
     19 N           6.6300    0.5010   17.5550 N.ar    1  UNL1       -0.2410
     20 C           5.5240    1.2190   17.7900 C.ar    1  UNL1        0.0987
     21 C           4.9980    1.4170   19.0500 C.ar    1  UNL1        0.0177
@<TRIPOS>BOND
     1     2     1    1
     2     3     2   ar
     3     4     3   ar
     4     5     2   ar
     5     6     5   ar
     6     7     6   ar
     7     7     4   ar
     8     8     7    1
     9     9     8    1
    10    10     9    1
    11    11    10    1
    12    11     6    1
    13    11    12    1
    14    13    12    2
    15    14    12   am
    16    15    14    1
    17    16    15   ar
    18    17    16    1
    19    18    15   ar
    20    19    18   ar
    21    20    19   ar
    22    21    20   ar
    23    21    16   ar
