@<TRIPOS>MOLECULE
*****
 21 23 0 0 0
SMALL
GASTEIGER

@<TRIPOS>ATOM
      1 O           8.7090    1.0140   20.9380 O.2     1  UNL1       -0.2726
      2 C           8.1310    0.0070   21.3510 C.2     1  UNL1        0.2516
      3 C           8.5290   -0.6690   22.6450 C.3     1  UNL1        0.1327
      4 C          10.0280   -0.7440   22.7830 C.ar    1  UNL1        0.0683
      5 C          10.7650   -1.7020   22.1010 C.ar    1  UNL1        0.0161
      6 C          12.1370   -1.7150   22.2580 C.ar    1  UNL1        0.0142
      7 N          10.5970    0.1810   23.5760 N.ar    1  UNL1       -0.2468
      8 C          11.9290    0.1560   23.7180 C.ar    1  UNL1        0.1098
      9 C          12.7180   -0.7900   23.0880 C.ar    1  UNL1        0.0768
     10 CL         14.4230   -0.8890   23.4160 Cl      1  UNL1       -0.0806
     11 N           7.0800   -0.5680   20.7290 N.am    1  UNL1       -0.1773
     12 C           6.3500   -0.0570   19.6470 C.ar    1  UNL1        0.0925
     13 C           5.2650    0.8220   19.9400 C.ar    1  UNL1        0.0184
     14 C           4.7340    1.0150   21.2410 C.ar    1  UNL1        0.0014
     15 C           3.7010    1.8810   21.4570 C.ar    1  UNL1        0.0000
     16 C           3.1480    2.5980   20.4060 C.ar    1  UNL1        0.0001
     17 C           3.6170    2.4390   19.1320 C.ar    1  UNL1        0.0016
     18 C           4.6810    1.5420   18.8630 C.ar    1  UNL1        0.0204
     19 C           5.1880    1.3020   17.5610 C.ar    1  UNL1        0.0989
     20 N           6.1690    0.4520   17.2860 N.ar    1  UNL1       -0.2410
     21 C           6.7280   -0.2020   18.3130 C.ar    1  UNL1        0.1154
@<TRIPOS>BOND
     1     2     1    2
     2     3     2    1
     3     4     3    1
     4     5     4   ar
     5     6     5   ar
     6     7     4   ar
     7     8     7   ar
     8     9     8   ar
     9     9     6   ar
    10    10     9    1
    11    11     2   am
    12    12    11    1
    13    13    12   ar
    14    14    13   ar
    15    15    14   ar
    16    16    15   ar
    17    17    16   ar
    18    18    17   ar
    19    18    13   ar
    20    19    18   ar
    21    20    19   ar
    22    21    20   ar
    23    21    12   ar
