@<TRIPOS>MOLECULE
*****
 28 31 0 0 0
SMALL
GASTEIGER

@<TRIPOS>ATOM
      1 O           9.1200    1.4200   20.9890 O.2     1  UNL1       -0.2723
      2 C           8.8950    0.3770   21.5850 C.2     1  UNL1        0.2545
      3 N           9.2950    0.1760   22.8760 N.am    1  UNL1       -0.2527
      4 C           9.7090    1.3540   23.6320 C.3     1  UNL1        0.1253
      5 C          11.1790    1.6490   23.4680 C.ar    1  UNL1        0.0050
      6 C          11.7480    2.8860   23.0460 C.ar    1  UNL1        0.0049
      7 C          13.1210    2.8330   22.9230 C.ar    1  UNL1        0.0352
      8 S          13.7070    1.2700   23.3330 S.2     1  UNL1       -0.0862
      9 C          12.1330    0.6940   23.6600 C.ar    1  UNL1        0.0328
     10 C           9.1800   -1.0660   23.5680 C.ar    1  UNL1        0.0543
     11 C           8.9110   -1.1020   24.9310 C.ar    1  UNL1        0.0162
     12 C           8.8380   -2.3100   25.6030 C.ar    1  UNL1        0.0158
     13 C           9.5800   -2.2370   22.9380 C.ar    1  UNL1        0.0162
     14 C           9.5370   -3.4450   23.6090 C.ar    1  UNL1        0.0158
     15 C           9.1610   -3.5070   24.9560 C.ar    1  UNL1        0.0480
     16 N           9.1470   -4.7040   25.6310 N.pl3   1  UNL1       -0.3041
     17 C           8.2190   -4.9280   26.7310 C.3     1  UNL1        0.1122
     18 C           9.5160   -5.9310   24.9510 C.3     1  UNL1        0.1122
     19 C           8.0590   -0.7220   20.9250 C.3     1  UNL1        0.2141
     20 N           7.1920   -0.1800   19.8990 N.ar    1  UNL1       -0.2223
     21 C           6.0420    0.5380   20.0270 C.ar    1  UNL1        0.0994
     22 C           5.2730    0.9280   21.1130 C.ar    1  UNL1        0.0204
     23 C           4.1380    1.6830   20.8550 C.ar    1  UNL1        0.0016
     24 C           3.7960    2.0440   19.5530 C.ar    1  UNL1        0.0017
     25 C           4.5780    1.6530   18.4740 C.ar    1  UNL1        0.0225
     26 C           5.7110    0.8840   18.7210 C.ar    1  UNL1        0.1217
     27 N           6.6580    0.3600   17.8730 N.ar    1  UNL1       -0.1288
     28 N           7.5340   -0.2810   18.5900 N.ar    1  UNL1       -0.0634
@<TRIPOS>BOND
     1     2     1    2
     2     3     2   am
     3     4     3    1
     4     5     4    1
     5     6     5   ar
     6     7     6   ar
     7     8     7   ar
     8     9     8   ar
     9     9     5   ar
    10    10     3    1
    11    11    10   ar
    12    12    11   ar
    13    13    10   ar
    14    14    13   ar
    15    15    14   ar
    16    15    12   ar
    17    16    15    1
    18    17    16    1
    19    18    16    1
    20    19     2    1
    21    20    19    1
    22    21    20   ar
    23    22    21   ar
    24    23    22   ar
    25    24    23   ar
    26    25    24   ar
    27    26    25   ar
    28    26    21   ar
    29    27    26   ar
    30    28    27   ar
    31    28    20   ar
