@<TRIPOS>MOLECULE
*****
 27 30 0 0 0
SMALL
GASTEIGER

@<TRIPOS>ATOM
      1 O           9.0520    1.0090   21.0920 O.2     1  UNL1       -0.2701
      2 C           8.5110    0.0230   21.5680 C.2     1  UNL1        0.2742
      3 C           9.1000   -0.6730   22.8210 C.3     1  UNL1        0.1877
      4 C          10.5710   -0.3890   23.0330 C.ar    1  UNL1        0.0453
      5 C          11.5360   -0.9520   22.2000 C.ar    1  UNL1        0.0137
      6 C          12.8480   -0.5210   22.2620 C.ar    1  UNL1        0.0682
      7 CL         14.0230   -1.2410   21.2090 Cl      1  UNL1       -0.0814
      8 C          13.2170    0.4750   23.1500 C.ar    1  UNL1        0.0712
      9 CL         14.8720    0.9770   23.2710 Cl      1  UNL1       -0.0813
     10 C          12.2790    1.0550   23.9830 C.ar    1  UNL1        0.0489
     11 C          10.9710    0.6140   23.9200 C.ar    1  UNL1        0.1380
     12 O          10.1080    1.2000   24.8170 O.3     1  UNL1       -0.4756
     13 C           8.7180    1.2010   24.4320 C.3     1  UNL1        0.2087
     14 C           8.2430   -0.1660   23.9890 C.3     1  UNL1        0.0879
     15 O           8.9090   -2.0520   22.5320 O.3     1  UNL1       -0.3428
     16 C           9.1440   -2.9770   23.6030 C.3     1  UNL1        0.1750
     17 N           7.3700   -0.5150   21.0910 N.am    1  UNL1       -0.1754
     18 C           6.6470   -0.0300   19.9780 C.ar    1  UNL1        0.0925
     19 C           5.5290    0.8220   20.2210 C.ar    1  UNL1        0.0184
     20 C           5.0670    1.1630   21.5190 C.ar    1  UNL1        0.0014
     21 C           3.9920    1.9890   21.6870 C.ar    1  UNL1        0.0000
     22 C           3.3220    2.5120   20.5880 C.ar    1  UNL1        0.0001
     23 C           3.7220    2.2050   19.3180 C.ar    1  UNL1        0.0016
     24 C           4.8370    1.3580   19.0980 C.ar    1  UNL1        0.0204
     25 C           5.3070    1.0140   17.8070 C.ar    1  UNL1        0.0989
     26 N           6.3440    0.2160   17.5820 N.ar    1  UNL1       -0.2410
     27 C           6.9880   -0.2810   18.6500 C.ar    1  UNL1        0.1154
@<TRIPOS>BOND
     1     2     1    2
     2     3     2    1
     3     4     3    1
     4     5     4   ar
     5     6     5   ar
     6     7     6    1
     7     8     6   ar
     8     9     8    1
     9    10     8   ar
    10    11     4   ar
    11    11    10   ar
    12    12    11    1
    13    13    12    1
    14    14    13    1
    15    14     3    1
    16     3    15    1
    17    16    15    1
    18    17     2   am
    19    18    17    1
    20    19    18   ar
    21    20    19   ar
    22    21    20   ar
    23    22    21   ar
    24    23    22   ar
    25    24    23   ar
    26    24    19   ar
    27    25    24   ar
    28    26    25   ar
    29    27    26   ar
    30    27    18   ar
