@<TRIPOS>MOLECULE
*****
 33 37 0 0 0
SMALL
GASTEIGER

@<TRIPOS>ATOM
      1 O           9.2270    1.3450   21.0650 O.2     1  UNL1       -0.2726
      2 C           8.6940    0.3930   21.6180 C.2     1  UNL1        0.2501
      3 N           7.5250   -0.1370   21.1890 N.am    1  UNL1       -0.1773
      4 C           6.7220    0.2730   20.1040 C.ar    1  UNL1        0.0925
      5 C           5.4850    0.9250   20.3930 C.ar    1  UNL1        0.0184
      6 C           4.9920    1.1350   21.7070 C.ar    1  UNL1        0.0014
      7 C           3.8040    1.7740   21.9170 C.ar    1  UNL1        0.0000
      8 C           3.0500    2.2390   20.8470 C.ar    1  UNL1        0.0001
      9 C           3.4780    2.0560   19.5620 C.ar    1  UNL1        0.0016
     10 C           4.7000    1.3900   19.2980 C.ar    1  UNL1        0.0204
     11 C           5.1920    1.1590   17.9890 C.ar    1  UNL1        0.0989
     12 N           6.3330    0.5410   17.7220 N.ar    1  UNL1       -0.2410
     13 C           7.0660    0.1160   18.7600 C.ar    1  UNL1        0.1154
     14 C           9.3140   -0.2360   22.8890 C.3     1  UNL1        0.1120
     15 C          10.8320   -0.0010   22.9470 C.ar    1  UNL1        0.0218
     16 C          11.6900   -0.7340   22.1280 C.ar    1  UNL1        0.0106
     17 C          13.0530   -0.4990   22.1830 C.ar    1  UNL1        0.0576
     18 CL         14.1020   -1.3640   21.0950 Cl      1  UNL1       -0.0823
     19 C          13.5980    0.4270   23.0410 C.ar    1  UNL1        0.0145
     20 C          12.7650    1.1570   23.8680 C.ar    1  UNL1        0.0374
     21 C          11.3990    0.9430   23.8170 C.ar    1  UNL1        0.1350
     22 O          10.6570    1.6970   24.6930 O.3     1  UNL1       -0.4757
     23 C           9.2690    1.8380   24.3480 C.3     1  UNL1        0.2062
     24 C           8.6400    0.4890   24.0790 C.3     1  UNL1        0.0616
     25 C           9.0030   -1.7560   22.9810 C.3     1  UNL1        0.1020
     26 N           7.6090   -2.0500   23.3270 N.3     1  UNL1       -0.2107
     27 C           7.2050   -3.4070   22.9900 C.3     1  UNL1        0.1360
     28 C           7.4440   -4.2850   24.1770 C.ar    1  UNL1        0.0976
     29 C           6.5420   -4.6490   25.2200 C.ar    1  UNL1        0.0381
     30 C           7.2800   -5.3880   26.0910 C.ar    1  UNL1        0.0964
     31 N           8.6680   -4.7950   24.3920 N.ar    1  UNL1       -0.1721
     32 N           8.5550   -5.4500   25.5760 N.ar    1  UNL1       -0.2476
     33 C           9.7400   -6.0430   26.1800 C.3     1  UNL1        0.1537
@<TRIPOS>BOND
     1     2     1    2
     2     3     2   am
     3     4     3    1
     4     5     4   ar
     5     6     5   ar
     6     7     6   ar
     7     8     7   ar
     8     9     8   ar
     9    10     9   ar
    10    10     5   ar
    11    11    10   ar
    12    12    11   ar
    13    13    12   ar
    14    13     4   ar
    15    14     2    1
    16    15    14    1
    17    16    15   ar
    18    17    16   ar
    19    18    17    1
    20    19    17   ar
    21    20    19   ar
    22    21    15   ar
    23    21    20   ar
    24    22    21    1
    25    23    22    1
    26    24    23    1
    27    24    14    1
    28    14    25    1
    29    26    25    1
    30    27    26    1
    31    28    27    1
    32    29    28   ar
    33    30    29   ar
    34    31    28   ar
    35    32    31   ar
    36    32    30   ar
    37    33    32    1
