@<TRIPOS>MOLECULE
*****
 18 19 0 0 0
SMALL
GASTEIGER

@<TRIPOS>ATOM
      1 N           5.2980   -4.8680   26.1230 N.pl3   1  UNL1        0.0822
      2 C           6.7550   -4.9940   26.2030 C.ar    1  UNL1        0.3030
      3 O           4.6670   -5.7450   25.5550 O.co2   1  UNL1       -0.5760
      4 C           7.2760   -5.3950   27.4270 C.ar    1  UNL1        0.0766
      5 C           6.4140   -3.9290   19.8520 C.2     1  UNL1        0.2262
      6 C           7.0310   -2.8250   19.0480 C.3     1  UNL1        0.0948
      7 C           8.6410   -5.5340   27.5760 C.ar    1  UNL1        0.0064
      8 C           9.4910   -5.2770   26.5170 C.ar    1  UNL1        0.0017
      9 C           8.9830   -4.8740   25.2930 C.ar    1  UNL1        0.0208
     10 C           7.6100   -4.7260   25.1080 C.ar    1  UNL1        0.1183
     11 C           7.5120   -3.1050   23.1770 C.3     1  UNL1        0.1125
     12 C           7.9670   -3.4270   21.7700 C.3     1  UNL1        0.1148
     13 C           6.5660   -5.4270   21.7720 C.3     1  UNL1        0.1148
     14 C           6.0610   -5.0700   23.1490 C.3     1  UNL1        0.1125
     15 N           7.0840   -4.3190   23.8830 N.pl3   1  UNL1       -0.2993
     16 N           6.9560   -4.2140   21.0550 N.am    1  UNL1       -0.2760
     17 O           4.7700   -3.9120   26.6670 O.2     1  UNL1        0.0415
     18 O           5.4920   -4.5740   19.3770 O.2     1  UNL1       -0.2749
@<TRIPOS>UNITY_ATOM_ATTR
1 1
charge 1
3 1
charge -1
@<TRIPOS>BOND
     1     2     1    1
     2     3     1    1
     3     4     2   ar
     4     6     5    1
     5     7     4   ar
     6     8     7   ar
     7     9     8   ar
     8    10     9   ar
     9    10     2   ar
    10    12    11    1
    11    14    13    1
    12    15    14    1
    13    15    11    1
    14    15    10    1
    15    16    13    1
    16    16    12    1
    17    16     5   am
    18    17     1    2
    19    18     5    2
