@<TRIPOS>MOLECULE
*****
 31 35 0 0 0
SMALL
GASTEIGER

@<TRIPOS>ATOM
      1 O           8.5820    3.2880   25.8100 O.2     1  UNL1       -0.1408
      2 S           7.8120    2.3390   25.0850 S.O2    1  UNL1        0.1023
      3 O           6.7800    1.5970   25.7270 O.2     1  UNL1       -0.1408
      4 N           7.1650    3.1480   23.8630 N.3     1  UNL1       -0.1453
      5 C           7.7040    3.4800   22.5160 C.3     1  UNL1        0.0984
      6 C           6.6000    4.5360   22.3880 C.3     1  UNL1        0.0384
      7 C           5.9120    3.9110   23.6070 C.3     1  UNL1        0.0984
      8 N           8.8230    1.2880   24.4180 N.3     1  UNL1       -0.1401
      9 C          10.1990    1.3120   24.9300 C.3     1  UNL1        0.1229
     10 C           8.3420   -0.0740   24.1230 C.3     1  UNL1        0.1108
     11 C           9.1200   -0.6350   22.9280 C.3     1  UNL1        0.1182
     12 C          10.6150   -0.4170   23.0940 C.ar    1  UNL1       -0.0142
     13 C          11.1060    0.4960   24.0420 C.ar    1  UNL1       -0.0078
     14 C          12.4820    0.6740   24.1660 C.ar    1  UNL1       -0.0023
     15 C          13.3680   -0.0120   23.3570 C.ar    1  UNL1        0.0111
     16 C          11.5170   -1.1170   22.2890 C.ar    1  UNL1        0.0074
     17 C          12.8730   -0.8890   22.4250 C.ar    1  UNL1        0.0574
     18 CL         13.9770   -1.6940   21.3470 Cl      1  UNL1       -0.0823
     19 C           8.6440    0.0390   21.6390 C.2     1  UNL1        0.2507
     20 O           9.2280    1.0030   21.1520 O.2     1  UNL1       -0.2726
     21 N           7.4860   -0.4610   21.1340 N.am    1  UNL1       -0.1773
     22 C           6.7240    0.0290   20.0470 C.ar    1  UNL1        0.0925
     23 C           5.5150    0.7490   20.3170 C.ar    1  UNL1        0.0184
     24 C           4.9690    0.9190   21.6170 C.ar    1  UNL1        0.0014
     25 C           3.8200    1.6320   21.8090 C.ar    1  UNL1        0.0000
     26 C           3.1630    2.2190   20.7340 C.ar    1  UNL1        0.0001
     27 C           3.6440    2.0810   19.4640 C.ar    1  UNL1        0.0016
     28 C           4.8230    1.3350   19.2180 C.ar    1  UNL1        0.0204
     29 C           5.3640    1.1450   17.9210 C.ar    1  UNL1        0.0989
     30 N           6.4730    0.4650   17.6690 N.ar    1  UNL1       -0.2410
     31 C           7.1200   -0.0730   18.7130 C.ar    1  UNL1        0.1154
@<TRIPOS>BOND
     1     2     1    2
     2     3     2    2
     3     2     4    1
     4     5     4    1
     5     6     5    1
     6     7     6    1
     7     7     4    1
     8     8     2    1
     9     9     8    1
    10    10     8    1
    11    11    10    1
    12    12    11    1
    13    13    12   ar
    14    13     9    1
    15    14    13   ar
    16    15    14   ar
    17    16    12   ar
    18    17    16   ar
    19    17    15   ar
    20    18    17    1
    21    11    19    1
    22    20    19    2
    23    21    19   am
    24    22    21    1
    25    23    22   ar
    26    24    23   ar
    27    25    24   ar
    28    26    25   ar
    29    27    26   ar
    30    28    27   ar
    31    28    23   ar
    32    29    28   ar
    33    30    29   ar
    34    31    30   ar
    35    31    22   ar
