
     RDKit          3D

 31 35  0  0  0  0  0  0  0  0999 V2000
    8.5820    3.2880   25.8100 O   0  0  0  0  0  0  0  0  0  0  0  0
    7.8120    2.3390   25.0850 S   0  0  1  0  0  0  0  0  0  0  0  0
    6.7800    1.5970   25.7270 O   0  0  0  0  0  0  0  0  0  0  0  0
    7.1650    3.1480   23.8630 N   0  0  0  0  0  0  0  0  0  0  0  0
    7.7040    3.4800   22.5160 C   0  0  0  0  0  0  0  0  0  0  0  0
    6.6000    4.5360   22.3880 C   0  0  0  0  0  0  0  0  0  0  0  0
    5.9120    3.9110   23.6070 C   0  0  0  0  0  0  0  0  0  0  0  0
    8.8230    1.2880   24.4180 N   0  0  0  0  0  0  0  0  0  0  0  0
   10.1990    1.3120   24.9300 C   0  0  0  0  0  0  0  0  0  0  0  0
    8.3420   -0.0740   24.1230 C   0  0  0  0  0  0  0  0  0  0  0  0
    9.1200   -0.6350   22.9280 C   0  0  2  0  0  0  0  0  0  0  0  0
   10.6150   -0.4170   23.0940 C   0  0  0  0  0  0  0  0  0  0  0  0
   11.1060    0.4960   24.0420 C   0  0  0  0  0  0  0  0  0  0  0  0
   12.4820    0.6740   24.1660 C   0  0  0  0  0  0  0  0  0  0  0  0
   13.3680   -0.0120   23.3570 C   0  0  0  0  0  0  0  0  0  0  0  0
   11.5170   -1.1170   22.2890 C   0  0  0  0  0  0  0  0  0  0  0  0
   12.8730   -0.8890   22.4250 C   0  0  0  0  0  0  0  0  0  0  0  0
   13.9770   -1.6940   21.3470 Cl  0  0  0  0  0  0  0  0  0  0  0  0
    8.6440    0.0390   21.6390 C   0  0  0  0  0  0  0  0  0  0  0  0
    9.2280    1.0030   21.1520 O   0  0  0  0  0  0  0  0  0  0  0  0
    7.4860   -0.4610   21.1340 N   0  0  0  0  0  0  0  0  0  0  0  0
    6.7240    0.0290   20.0470 C   0  0  0  0  0  0  0  0  0  0  0  0
    5.5150    0.7490   20.3170 C   0  0  0  0  0  0  0  0  0  0  0  0
    4.9690    0.9190   21.6170 C   0  0  0  0  0  0  0  0  0  0  0  0
    3.8200    1.6320   21.8090 C   0  0  0  0  0  0  0  0  0  0  0  0
    3.1630    2.2190   20.7340 C   0  0  0  0  0  0  0  0  0  0  0  0
    3.6440    2.0810   19.4640 C   0  0  0  0  0  0  0  0  0  0  0  0
    4.8230    1.3350   19.2180 C   0  0  0  0  0  0  0  0  0  0  0  0
    5.3640    1.1450   17.9210 C   0  0  0  0  0  0  0  0  0  0  0  0
    6.4730    0.4650   17.6690 N   0  0  0  0  0  0  0  0  0  0  0  0
    7.1200   -0.0730   18.7130 C   0  0  0  0  0  0  0  0  0  0  0  0
  2  1  2  0
  3  2  2  0
  2  4  1  6
  5  4  1  0
  6  5  1  0
  7  6  1  0
  7  4  1  0
  8  2  1  0
  9  8  1  0
 10  8  1  0
 11 10  1  0
 12 11  1  0
 13 12  2  0
 13  9  1  0
 14 13  1  0
 15 14  2  0
 16 12  1  0
 17 16  2  0
 17 15  1  0
 18 17  1  0
 11 19  1  6
 20 19  2  0
 21 19  1  0
 22 21  1  0
 23 22  1  0
 24 23  2  0
 25 24  1  0
 26 25  2  0
 27 26  1  0
 28 27  2  0
 28 23  1  0
 29 28  1  0
 30 29  2  0
 31 30  1  0
 31 22  2  0
M  END
