@<TRIPOS>MOLECULE
*****
 7 7 0 0 0
SMALL
GASTEIGER

@<TRIPOS>ATOM
      1 N           3.8630    2.0700   19.5890 N.pl3   1  UNL1       -0.1248
      2 C           4.8270    1.2310   19.1790 C.ar    1  UNL1        0.1273
      3 C           5.2660    0.1470   19.9800 C.ar    1  UNL1        0.1202
      4 C           6.7040   -0.5050   18.3020 C.ar    1  UNL1        0.1990
      5 C           5.4380    1.3570   17.9020 C.ar    1  UNL1        0.1202
      6 N           6.1890   -0.7300   19.5570 N.ar    1  UNL1       -0.2210
      7 N           6.3730    0.5000   17.4690 N.ar    1  UNL1       -0.2210
@<TRIPOS>BOND
     1     2     1    1
     2     3     2   ar
     3     5     2   ar
     4     6     3   ar
     5     6     4   ar
     6     7     5   ar
     7     7     4   ar
