@<TRIPOS>MOLECULE
*****
 28 31 0 0 0
SMALL
GASTEIGER

@<TRIPOS>ATOM
      1 O           9.2530    1.1380   21.1340 O.2     1  UNL1       -0.2745
      2 C           9.0080    0.0180   21.5710 C.2     1  UNL1        0.2304
      3 C           7.9270   -0.8450   20.9460 C.3     1  UNL1        0.1131
      4 C           7.1400   -0.1120   19.8870 C.ar    1  UNL1        0.0061
      5 C           6.0710    0.7570   20.2430 C.ar    1  UNL1       -0.0005
      6 C           5.7180    1.0510   21.5860 C.ar    1  UNL1       -0.0002
      7 C           4.6930    1.9100   21.8730 C.ar    1  UNL1       -0.0000
      8 C           3.9760    2.5200   20.8540 C.ar    1  UNL1        0.0000
      9 C           4.2790    2.2710   19.5460 C.ar    1  UNL1        0.0015
     10 C           5.3290    1.3840   19.2040 C.ar    1  UNL1        0.0189
     11 C           5.7060    1.0970   17.8710 C.ar    1  UNL1        0.0988
     12 N           6.7150    0.3010   17.5410 N.ar    1  UNL1       -0.2426
     13 C           7.4000   -0.2780   18.5390 C.ar    1  UNL1        0.0951
     14 N           9.6620   -0.4970   22.6370 N.am    1  UNL1       -0.2746
     15 C          10.5880    0.3290   23.3820 C.3     1  UNL1        0.1265
     16 C          12.0010    0.0220   22.9940 C.ar    1  UNL1        0.0273
     17 S          13.2950    0.8310   23.7180 S.2     1  UNL1       -0.0891
     18 C          14.4370    0.0060   22.7370 C.ar    1  UNL1        0.0352
     19 C          13.8620   -0.8690   21.8840 C.ar    1  UNL1        0.0072
     20 C          12.4530   -0.8910   22.0130 C.ar    1  UNL1        0.0044
     21 C           9.5030   -1.8810   23.1100 C.3     1  UNL1        0.0938
     22 C           8.5300   -1.9770   24.2750 C.3     1  UNL1        0.0215
     23 C           8.5270   -3.3900   24.8630 C.3     1  UNL1        0.0017
     24 C           9.8350   -3.7000   25.5890 C.3     1  UNL1        0.0001
     25 C           9.8440   -5.0960   26.2130 C.3     1  UNL1        0.0000
     26 C           8.6580   -5.2990   27.1460 C.3     1  UNL1        0.0000
     27 C           7.3510   -5.0090   26.4250 C.3     1  UNL1        0.0000
     28 C           7.3490   -3.6090   25.8120 C.3     1  UNL1        0.0001
@<TRIPOS>BOND
     1     2     1    2
     2     3     2    1
     3     4     3    1
     4     5     4   ar
     5     6     5   ar
     6     7     6   ar
     7     8     7   ar
     8     9     8   ar
     9    10     9   ar
    10    10     5   ar
    11    11    10   ar
    12    12    11   ar
    13    13    12   ar
    14    13     4   ar
    15    14     2   am
    16    15    14    1
    17    16    15    1
    18    17    16   ar
    19    18    17   ar
    20    19    18   ar
    21    20    19   ar
    22    20    16   ar
    23    21    14    1
    24    22    21    1
    25    23    22    1
    26    24    23    1
    27    25    24    1
    28    26    25    1
    29    27    26    1
    30    28    27    1
    31    28    23    1
