@<TRIPOS>MOLECULE
*****
 19 20 0 0 0
SMALL
GASTEIGER

@<TRIPOS>ATOM
      1 CL         11.2590   -3.6970   27.0740 Cl      1  UNL1       -0.0823
      2 C          11.9220   -2.7610   25.7640 C.ar    1  UNL1        0.0574
      3 C          13.2810   -2.8010   25.5280 C.ar    1  UNL1        0.0114
      4 C          13.8080   -1.9700   24.5530 C.ar    1  UNL1        0.0005
      5 C          12.9780   -1.1220   23.8330 C.ar    1  UNL1       -0.0042
      6 C          11.0790   -1.9410   25.0400 C.ar    1  UNL1        0.0071
      7 C          11.6060   -1.1020   24.0630 C.ar    1  UNL1       -0.0209
      8 C          10.6910   -0.1990   23.2680 C.3     1  UNL1        0.0360
      9 C           9.5950   -0.9660   22.4890 C.3     1  UNL1        0.0918
     10 C           8.8910   -0.1070   21.4600 C.2     1  UNL1        0.2459
     11 O           9.3760    0.9500   21.0640 O.2     1  UNL1       -0.2730
     12 N           7.7100   -0.6020   21.0220 N.am    1  UNL1       -0.1779
     13 C           6.9100   -0.0470   19.9870 C.ar    1  UNL1        0.0885
     14 C           5.7350    0.6660   20.3000 C.ar    1  UNL1       -0.0034
     15 C           5.2460    0.8220   21.7170 C.3     1  UNL1        0.0325
     16 C           7.2860   -0.1490   18.6470 C.ar    1  UNL1        0.1151
     17 N           6.5970    0.3970   17.6400 N.ar    1  UNL1       -0.2410
     18 C           5.4840    1.0720   17.9500 C.ar    1  UNL1        0.0987
     19 C           5.0240    1.2290   19.2430 C.ar    1  UNL1        0.0177
@<TRIPOS>BOND
     1     2     1    1
     2     3     2   ar
     3     4     3   ar
     4     5     4   ar
     5     6     2   ar
     6     7     6   ar
     7     7     5   ar
     8     8     7    1
     9     9     8    1
    10    10     9    1
    11    11    10    2
    12    12    10   am
    13    13    12    1
    14    14    13   ar
    15    15    14    1
    16    16    13   ar
    17    17    16   ar
    18    18    17   ar
    19    19    18   ar
    20    19    14   ar
