@<TRIPOS>MOLECULE
*****
 25 28 0 0 0
SMALL
GASTEIGER

@<TRIPOS>ATOM
      1 CL         14.3610   -1.6480   20.8380 Cl      1  UNL1       -0.0823
      2 C          13.3360   -0.7610   21.9270 C.ar    1  UNL1        0.0576
      3 C          13.8940    0.1910   22.7520 C.ar    1  UNL1        0.0145
      4 C          13.0750    0.9110   23.6040 C.ar    1  UNL1        0.0374
      5 C          11.9790   -1.0110   21.9190 C.ar    1  UNL1        0.0106
      6 C          11.1370   -0.2900   22.7600 C.ar    1  UNL1        0.0212
      7 C          11.7100    0.6610   23.6140 C.ar    1  UNL1        0.1350
      8 O          10.9910    1.3500   24.5630 O.3     1  UNL1       -0.4757
      9 C           9.5530    1.3350   24.4120 C.3     1  UNL1        0.2062
     10 C           9.0280   -0.0380   24.0850 C.3     1  UNL1        0.0610
     11 C           9.6400   -0.5330   22.7630 C.3     1  UNL1        0.1074
     12 C           9.0100    0.1870   21.5690 C.2     1  UNL1        0.2495
     13 O           9.5440    1.1520   21.0320 O.2     1  UNL1       -0.2726
     14 N           7.7580   -0.2050   21.2710 N.am    1  UNL1       -0.1758
     15 C           6.9840    0.0440   20.1230 C.ar    1  UNL1        0.1098
     16 C           7.4680    0.0390   18.8150 C.ar    1  UNL1        0.1170
     17 N           6.7930    0.5090   17.7560 N.ar    1  UNL1       -0.2393
     18 C           5.5920    1.0540   17.9720 C.ar    1  UNL1        0.1196
     19 C           5.7280    0.6230   20.3270 C.ar    1  UNL1        0.1000
     20 N           5.0190    1.0130   21.4720 N.ar    1  UNL1       -0.2752
     21 C           5.3530    0.7340   22.8680 C.3     1  UNL1        0.1352
     22 C           5.0450    1.1600   19.2430 C.ar    1  UNL1        0.1222
     23 N           3.9400    1.8370   19.7370 N.ar    1  UNL1       -0.1892
     24 C           3.9080    1.7520   21.1010 C.ar    1  UNL1        0.3503
     25 O           3.0670    2.2170   21.8580 O.2     1  UNL1       -0.2444
@<TRIPOS>BOND
     1     2     1    1
     2     3     2   ar
     3     4     3   ar
     4     5     2   ar
     5     6     5   ar
     6     7     6   ar
     7     7     4   ar
     8     8     7    1
     9     9     8    1
    10    10     9    1
    11    11    10    1
    12    11     6    1
    13    11    12    1
    14    13    12    2
    15    14    12   am
    16    15    14    1
    17    16    15   ar
    18    17    16   ar
    19    18    17   ar
    20    19    15   ar
    21    20    19   ar
    22    21    20    1
    23    22    19   ar
    24    22    18   ar
    25    23    22   ar
    26    24    23   ar
    27    24    20   ar
    28    25    24    2
