/Users/duckhoan/Documents/VS_Code/ViDok/nearest_amino_acid-master/data/ligands/ZINC000085862539_1350.pdb
 OpenBabel04112221323D

 54 62  0  0  1  0  0  0  0  0999 V2000
  -11.3100   15.8390   67.2890 C   0  0  0  0  0  0  0  0  0  0  0  0
  -10.7800   16.8900   67.9650 C   0  0  2  0  0  0  0  0  0  0  0  0
  -11.0120   17.0520   69.3470 O   0  0  0  0  0  0  0  0  0  0  0  0
  -11.5820   16.0170   70.1000 C   0  0  1  0  0  0  0  0  0  0  0  0
  -12.0850   14.9310   69.4940 C   0  0  0  0  0  0  0  0  0  0  0  0
  -12.1160   14.7940   68.0150 C   0  0  0  0  0  0  0  0  0  0  0  0
  -12.6600   13.7710   70.2440 C   0  0  0  0  0  0  0  0  0  0  0  0
  -11.7920   12.6730   70.0240 O   0  0  0  0  0  0  0  0  0  0  0  0
  -12.0600   11.5100   70.6740 C   0  0  0  0  0  0  0  0  0  0  0  0
  -11.5320   10.4640   70.3390 O   0  0  0  0  0  0  0  0  0  0  0  0
  -12.9370   11.5950   71.7020 O   0  0  0  0  0  0  0  0  0  0  0  0
  -13.2620   12.8140   72.3630 C   0  0  1  0  0  0  0  0  0  0  0  0
  -12.6710   14.0070   71.7010 C   0  0  0  0  0  0  0  0  0  0  0  0
  -12.1890   15.1370   72.2680 C   0  0  0  0  0  0  0  0  0  0  0  0
  -11.6160   16.1330   71.4720 O   0  0  0  0  0  0  0  0  0  0  0  0
  -14.6600   13.0150   72.2890 O   0  0  0  0  0  0  0  0  0  0  0  0
   -9.9310   17.9680   67.3280 C   0  0  0  0  0  0  0  0  0  0  0  0
  -10.5220   18.8490   66.4190 C   0  0  0  0  0  0  0  0  0  0  0  0
   -9.8220   19.8140   65.8180 N   0  0  0  0  0  0  0  0  0  0  0  0
  -10.4380   20.5950   64.9080 F   0  0  0  0  0  0  0  0  0  0  0  0
   -8.5580   20.0440   66.0820 N   0  0  0  0  0  0  0  0  0  0  0  0
   -7.9140   19.2830   66.9680 C   0  0  0  0  0  0  0  0  0  0  0  0
   -8.5520   18.1930   67.6090 C   0  0  0  0  0  0  0  0  0  0  0  0
   -6.5660   19.5950   67.2550 C   0  0  0  0  0  0  0  0  0  0  0  0
   -7.7600   17.4170   68.4890 C   0  0  0  0  0  0  0  0  0  0  0  0
   -6.4480   17.7770   68.8200 C   0  0  0  0  0  0  0  0  0  0  0  0
   -5.7230   17.0200   69.8410 C   0  0  0  0  0  0  0  0  0  0  0  0
   -5.8580   18.8770   68.2350 C   0  0  0  0  0  0  0  0  0  0  0  0
   -6.2460   16.0500   70.3720 O   0  0  0  0  0  0  0  0  0  0  0  0
   -4.3540   17.5350   70.2240 C   0  0  0  0  0  0  0  0  0  0  0  0
   -3.5570   16.7950   70.7790 O   0  0  0  0  0  0  0  0  0  0  0  0
   -4.1060   18.9860   69.8660 C   0  0  1  0  0  0  0  0  0  0  0  0
   -4.6030   19.3290   68.5580 O   0  0  0  0  0  0  0  0  0  0  0  0
   -5.9910   20.7920   66.7600 N   0  0  0  0  0  0  0  0  0  0  0  0
   -4.5640   19.9510   70.9380 C   0  0  1  0  0  0  0  0  0  0  0  0
   -5.9810   20.1880   71.0180 O   0  0  0  0  0  0  0  0  0  0  0  0
   -3.9080   19.8100   72.2140 O   0  0  0  0  0  0  0  0  0  0  0  0
   -3.7220   20.9530   71.5550 C   0  0  1  0  0  0  0  0  0  0  0  0
   -2.7260   21.5470   71.1680 O   0  0  0  0  0  0  0  0  0  0  0  0
  -11.1050   15.6630   65.9250 O   0  0  0  0  0  0  0  0  0  0  0  0
  -10.7010   14.3600   65.4540 C   0  0  1  0  0  0  0  0  0  0  0  0
  -10.2290   13.5440   66.5240 O   0  0  0  0  0  0  0  0  0  0  0  0
   -9.7640   12.2910   66.1540 C   0  0  0  0  0  0  0  0  0  0  0  0
   -8.8060   11.6900   66.8710 C   0  0  0  0  0  0  0  0  0  0  0  0
  -10.3520   11.5500   64.9950 C   0  0  0  0  0  0  0  0  0  0  0  0
   -8.2070   12.2810   67.9580 O   0  0  0  0  0  0  0  0  0  0  0  0
  -11.4340   12.3260   64.2560 C   0  0  0  0  0  0  0  0  0  0  0  0
   -9.9910   10.4430   64.6430 O   0  0  0  0  0  0  0  0  0  0  0  0
  -11.8780   13.6400   64.8430 C   0  0  0  0  0  0  0  0  0  0  0  0
  -11.8390   11.9900   63.1590 O   0  0  0  0  0  0  0  0  0  0  0  0
  -13.0350   14.0280   64.8460 O   0  0  0  0  0  0  0  0  0  0  0  0
  -12.2150   15.4050   73.7170 C   0  0  0  0  0  0  0  0  0  0  0  0
  -13.3000   16.1950   74.2010 N   0  0  0  0  0  0  0  0  0  0  0  0
  -12.1930   16.7580   74.1340 N   0  0  0  0  0  0  0  0  0  0  0  0
  1 40  1  0  0  0  0
  1  2  1  0  0  0  0
  1  6  2  0  0  0  0
  2 17  1  6  0  0  0
  2  3  1  0  0  0  0
  4  3  1  1  0  0  0
  4  5  1  0  0  0  0
  4 15  1  0  0  0  0
  5  6  1  0  0  0  0
  5  7  2  0  0  0  0
  7  8  1  0  0  0  0
  7 13  1  0  0  0  0
  8  9  1  0  0  0  0
  9 10  2  0  0  0  0
  9 11  1  0  0  0  0
 11 12  1  0  0  0  0
 12 13  1  0  0  0  0
 12 16  1  6  0  0  0
 13 14  2  0  0  0  0
 14 15  1  0  0  0  0
 14 52  1  0  0  0  0
 17 18  1  0  0  0  0
 17 23  2  0  0  0  0
 18 19  1  0  0  0  0
 19 20  1  0  0  0  0
 19 21  1  0  0  0  0
 21 22  2  0  0  0  0
 22 24  1  0  0  0  0
 22 23  1  0  0  0  0
 23 25  1  0  0  0  0
 24 34  1  0  0  0  0
 24 28  2  0  0  0  0
 25 26  2  0  0  0  0
 26 28  1  0  0  0  0
 26 27  1  0  0  0  0
 27 30  1  0  0  0  0
 27 29  2  0  0  0  0
 28 33  1  0  0  0  0
 30 31  2  0  0  0  0
 32 30  1  1  0  0  0
 32 33  1  0  0  0  0
 32 35  1  0  0  0  0
 35 36  1  1  0  0  0
 35 38  1  0  0  0  0
 35 37  1  0  0  0  0
 37 38  1  0  0  0  0
 38 39  1  6  0  0  0
 41 40  1  1  0  0  0
 41 49  1  0  0  0  0
 41 42  1  0  0  0  0
 42 43  1  0  0  0  0
 43 45  1  0  0  0  0
 43 44  2  0  0  0  0
 44 46  1  0  0  0  0
 45 47  1  0  0  0  0
 45 48  2  0  0  0  0
 47 50  2  0  0  0  0
 47 49  1  0  0  0  0
 49 51  2  0  0  0  0
 52 54  1  0  0  0  0
 52 53  1  0  0  0  0
 53 54  1  0  0  0  0
M  END
>  <MODEL>
     131

>  <REMARK>
 VINA RESULT:     -12.9      0.000      0.000
  5 active torsions:
  status: ('A' for Active; 'I' for Inactive)
    1  A    between atoms: C_5  and  O_6 
    2  A    between atoms: O_6  and  C_7 
    3  A    between atoms: C_8  and  C_26 
    4  A    between atoms: C_20  and  C_22 
    5  A    between atoms: C_39  and  C_44 

>  <COMPND>
    /Users/duckhoan/Documents/VS_Code/ViDok/Auto_download_vidok/Ligand_receptor/ZINC000085862539_1350_ligand.pdbqt 

>  <AUTHOR>
    GENERATED BY OPEN BABEL 3.1.0

>  <MASTER>
        0    0    0    0    0    0    0    0   54    0   54    0

$$$$
