/Users/duckhoan/Documents/VS_Code/ViDok/nearest_amino_acid-master/data/ligands/ZINC000085862539_102.pdb
 OpenBabel04122201363D

 46 52  0  0  1  0  0  0  0  0999 V2000
  -10.3150   16.9820   68.2050 C   0  0  0  0  0  0  0  0  0  0  0  0
   -9.9920   15.7610   67.7120 C   0  0  0  0  0  0  0  0  0  0  0  0
  -10.6330   14.5130   68.2860 C   0  0  0  0  0  0  0  0  0  0  0  0
  -11.4480   14.7670   69.5200 C   0  0  0  0  0  0  0  0  0  0  0  0
  -11.5850   16.0170   69.9900 C   0  0  0  0  0  0  0  0  0  0  0  0
  -11.1010   17.1400   69.3460 O   0  0  0  0  0  0  0  0  0  0  0  0
  -12.2110   16.2360   71.1800 N   0  0  0  0  0  0  0  0  0  0  0  0
  -12.7370   15.2440   71.9770 C   0  0  0  0  0  0  0  0  0  0  0  0
  -13.2210   15.5210   73.0680 O   0  0  0  0  0  0  0  0  0  0  0  0
  -12.6750   13.8630   71.4180 C   0  0  2  0  0  0  0  0  0  0  0  0
  -12.0490   13.6460   70.2410 C   0  0  0  0  0  0  0  0  0  0  0  0
  -11.9740   12.3810   69.6630 N   0  0  0  0  0  0  0  0  0  0  0  0
  -12.3020   11.2050   70.4260 C   0  0  0  0  0  0  0  0  0  0  0  0
  -13.3610   11.5280   71.3170 N   0  0  0  0  0  0  0  0  0  0  0  0
  -13.3750   12.7020   72.0280 C   0  0  0  0  0  0  0  0  0  0  0  0
  -14.0070   12.7500   73.0770 O   0  0  0  0  0  0  0  0  0  0  0  0
   -9.8320   18.2720   67.6480 C   0  0  0  0  0  0  0  0  0  0  0  0
  -10.7500   18.9010   66.8690 N   0  0  0  0  0  0  0  0  0  0  0  0
  -10.4060   20.0930   66.3410 C   0  0  0  0  0  0  0  0  0  0  0  0
   -9.1920   20.7190   66.5560 C   0  0  0  0  0  0  0  0  0  0  0  0
   -8.2390   20.0830   67.3520 C   0  0  0  0  0  0  0  0  0  0  0  0
   -7.0090   20.7200   67.6210 C   0  0  0  0  0  0  0  0  0  0  0  0
   -8.5290   18.8030   67.8910 C   0  0  0  0  0  0  0  0  0  0  0  0
   -6.0540   20.1190   68.4370 C   0  0  0  0  0  0  0  0  0  0  0  0
   -4.9340   20.8570   68.7090 O   0  0  0  0  0  0  0  0  0  0  0  0
   -6.2900   18.8360   68.9130 C   0  0  0  0  0  0  0  0  0  0  0  0
   -4.2250   20.4960   69.8940 C   0  0  2  0  0  0  0  0  0  0  0  0
   -4.0820   19.0160   70.1570 C   0  0  0  0  0  0  0  0  0  0  0  0
   -5.2760   18.1850   69.7530 C   0  0  0  0  0  0  0  0  0  0  0  0
   -3.1100   18.5130   70.7060 O   0  0  0  0  0  0  0  0  0  0  0  0
   -5.3880   17.0230   70.1200 O   0  0  0  0  0  0  0  0  0  0  0  0
   -7.4960   18.1690   68.6250 C   0  0  0  0  0  0  0  0  0  0  0  0
   -4.8060   21.1820   71.1400 C   0  0  0  0  0  0  0  0  0  0  0  0
   -3.7690   21.7360   71.9490 O   0  0  0  0  0  0  0  0  0  0  0  0
   -9.1310   15.6230   66.6340 O   0  0  0  0  0  0  0  0  0  0  0  0
   -9.5090   14.7270   65.5770 C   0  0  1  0  0  0  0  0  0  0  0  0
   -9.8210   13.4350   66.0990 O   0  0  0  0  0  0  0  0  0  0  0  0
  -10.1630   12.4650   65.1050 C   0  0  2  0  0  0  0  0  0  0  0  0
  -11.1660   12.9470   64.0770 C   0  0  0  0  0  0  0  0  0  0  0  0
  -11.4520   12.3520   63.0540 O   0  0  0  0  0  0  0  0  0  0  0  0
  -11.6910   14.3340   64.3530 C   0  0  0  0  0  0  0  0  0  0  0  0
  -12.8420   14.6250   64.1040 O   0  0  0  0  0  0  0  0  0  0  0  0
  -10.7160   15.3560   64.8860 C   0  0  0  0  0  0  0  0  0  0  0  0
  -10.8750   16.5400   64.6510 O   0  0  0  0  0  0  0  0  0  0  0  0
  -10.7500   11.2270   65.7890 C   0  0  0  0  0  0  0  0  0  0  0  0
  -11.8750   11.6100   66.5780 O   0  0  0  0  0  0  0  0  0  0  0  0
  1 17  1  0  0  0  0
  1  2  2  0  0  0  0
  1  6  1  0  0  0  0
  2 35  1  0  0  0  0
  2  3  1  0  0  0  0
  3  4  1  0  0  0  0
  4  5  1  0  0  0  0
  4 11  2  0  0  0  0
  5  6  1  0  0  0  0
  5  7  2  0  0  0  0
  7  8  1  0  0  0  0
  8  9  2  0  0  0  0
 10  8  1  6  0  0  0
 10 11  1  0  0  0  0
 10 15  1  0  0  0  0
 11 12  1  0  0  0  0
 12 13  1  0  0  0  0
 13 14  1  0  0  0  0
 14 15  1  0  0  0  0
 15 16  2  0  0  0  0
 17 18  2  0  0  0  0
 17 23  1  0  0  0  0
 18 19  1  0  0  0  0
 19 20  2  0  0  0  0
 20 21  1  0  0  0  0
 21 22  2  0  0  0  0
 21 23  1  0  0  0  0
 22 24  1  0  0  0  0
 23 32  2  0  0  0  0
 24 25  1  0  0  0  0
 24 26  2  0  0  0  0
 25 27  1  0  0  0  0
 26 32  1  0  0  0  0
 26 29  1  0  0  0  0
 27 28  1  0  0  0  0
 27 33  1  1  0  0  0
 28 29  1  0  0  0  0
 28 30  2  0  0  0  0
 29 31  2  0  0  0  0
 33 34  1  0  0  0  0
 36 35  1  1  0  0  0
 36 43  1  0  0  0  0
 36 37  1  0  0  0  0
 37 38  1  0  0  0  0
 38 39  1  0  0  0  0
 38 45  1  1  0  0  0
 39 40  2  0  0  0  0
 39 41  1  0  0  0  0
 41 42  2  0  0  0  0
 41 43  1  0  0  0  0
 43 44  2  0  0  0  0
 45 46  1  0  0  0  0
M  END
>  <MODEL>
     228

>  <REMARK>
 VINA RESULT:     -11.4      0.000      0.000
  5 active torsions:
  status: ('A' for Active; 'I' for Inactive)
    1  A    between atoms: C_2  and  C_3 
    2  A    between atoms: C_11  and  C_19 
    3  A    between atoms: C_20  and  O_21 
    4  A    between atoms: O_21  and  C_22 
    5  A    between atoms: C_24  and  C_25 

>  <COMPND>
    /Users/duckhoan/Documents/VS_Code/ViDok/Auto_download_vidok/Ligand_receptor/ZINC000085862539_102_ligand.pdbqt 

>  <AUTHOR>
    GENERATED BY OPEN BABEL 3.1.0

>  <MASTER>
        0    0    0    0    0    0    0    0   46    0   46    0

$$$$
