/Users/duckhoan/Documents/VS_Code/ViDok/nearest_amino_acid-master/data/ligands/ZINC000085862539_328.pdb
 OpenBabel04122201433D

 51 59  0  0  1  0  0  0  0  0999 V2000
  -10.4560   15.9330   67.4230 C   0  0  0  0  0  0  0  0  0  0  0  0
  -11.0240   14.8130   68.0190 N   0  0  0  0  0  0  0  0  0  0  0  0
  -11.5100   14.8810   69.3220 C   0  0  2  0  0  0  0  0  0  0  0  0
  -11.5720   16.0520   70.0150 C   0  0  0  0  0  0  0  0  0  0  0  0
  -11.0820   17.1860   69.3730 N   0  0  0  0  0  0  0  0  0  0  0  0
  -10.4700   17.1080   68.1110 C   0  0  1  0  0  0  0  0  0  0  0  0
  -12.0850   16.0780   71.2910 N   0  0  0  0  0  0  0  0  0  0  0  0
  -12.5730   14.9600   71.9560 C   0  0  0  0  0  0  0  0  0  0  0  0
  -12.5090   13.7530   71.3590 C   0  0  0  0  0  0  0  0  0  0  0  0
  -11.9440   13.6240   70.0010 C   0  0  0  0  0  0  0  0  0  0  0  0
  -11.8270   12.4790   69.4060 N   0  0  0  0  0  0  0  0  0  0  0  0
  -12.2230   11.3410   70.0780 C   0  0  0  0  0  0  0  0  0  0  0  0
  -12.0160   10.2570   69.5470 O   0  0  0  0  0  0  0  0  0  0  0  0
  -12.8410   11.3590   71.3140 N   0  0  0  0  0  0  0  0  0  0  0  0
  -12.9690   12.4850   71.9250 C   0  0  0  0  0  0  0  0  0  0  0  0
   -9.8280   18.3280   67.5850 C   0  0  0  0  0  0  0  0  0  0  0  0
  -10.5610   18.9840   66.6590 N   0  0  0  0  0  0  0  0  0  0  0  0
   -9.9950   20.0690   66.1260 C   0  0  0  0  0  0  0  0  0  0  0  0
   -8.7600   20.5180   66.3840 N   0  0  0  0  0  0  0  0  0  0  0  0
   -8.0370   19.8370   67.2800 C   0  0  0  0  0  0  0  0  0  0  0  0
   -8.5310   18.7130   67.9570 C   0  0  0  0  0  0  0  0  0  0  0  0
   -6.7340   20.2510   67.5370 C   0  0  0  0  0  0  0  0  0  0  0  0
   -7.7130   18.0520   68.9040 C   0  0  0  0  0  0  0  0  0  0  0  0
   -6.4090   18.4910   69.1340 C   0  0  0  0  0  0  0  0  0  0  0  0
   -5.9090   19.5890   68.4500 C   0  0  0  0  0  0  0  0  0  0  0  0
   -5.5390   17.7700   70.0640 C   0  0  0  0  0  0  0  0  0  0  0  0
   -4.6440   20.0830   68.5740 O   0  0  0  0  0  0  0  0  0  0  0  0
   -3.7940   19.5290   69.5840 C   0  0  2  0  0  0  0  0  0  0  0  0
   -4.0760   18.1030   69.9830 C   0  0  0  0  0  0  0  0  0  0  0  0
   -3.2200   17.2950   70.3120 O   0  0  0  0  0  0  0  0  0  0  0  0
   -5.9460   16.9530   70.8710 O   0  0  0  0  0  0  0  0  0  0  0  0
   -3.7250   20.4480   70.7660 C   0  0  1  0  0  0  0  0  0  0  0  0
   -4.6210   21.5850   70.7320 O   0  0  0  0  0  0  0  0  0  0  0  0
   -3.5990   19.7980   72.0290 O   0  0  0  0  0  0  0  0  0  0  0  0
   -2.5670   20.5900   71.6580 C   0  0  2  0  0  0  0  0  0  0  0  0
   -2.1250   21.5740   72.2040 O   0  0  0  0  0  0  0  0  0  0  0  0
   -9.8770   15.8450   66.1730 O   0  0  0  0  0  0  0  0  0  0  0  0
   -9.8640   14.5550   65.5580 C   0  0  1  0  0  0  0  0  0  0  0  0
   -9.4620   13.5520   66.4870 O   0  0  0  0  0  0  0  0  0  0  0  0
   -9.3840   12.2620   66.0050 C   0  0  0  0  0  0  0  0  0  0  0  0
   -8.4590   11.4160   66.4770 C   0  0  0  0  0  0  0  0  0  0  0  0
  -10.3110   11.7440   64.9630 C   0  0  0  0  0  0  0  0  0  0  0  0
   -7.5070   11.7960   67.3860 O   0  0  0  0  0  0  0  0  0  0  0  0
  -11.0850   12.8110   64.2270 C   0  0  0  0  0  0  0  0  0  0  0  0
  -10.4170   10.5650   64.6640 O   0  0  0  0  0  0  0  0  0  0  0  0
  -11.1310   14.2050   64.7820 C   0  0  0  0  0  0  0  0  0  0  0  0
  -11.5820   12.5750   63.1370 O   0  0  0  0  0  0  0  0  0  0  0  0
  -12.0710   14.9450   64.5390 O   0  0  0  0  0  0  0  0  0  0  0  0
  -13.1430   15.2010   73.3010 C   0  0  0  0  0  0  0  0  0  0  0  0
  -12.3240   15.2400   74.4800 O   0  0  0  0  0  0  0  0  0  0  0  0
  -12.9460   16.4460   73.9940 O   0  0  0  0  0  0  0  0  0  0  0  0
  1 37  1  0  0  0  0
  1  2  2  0  0  0  0
  1  6  1  0  0  0  0
  3  2  1  1  0  0  0
  3 10  1  0  0  0  0
  3  4  1  0  0  0  0
  4  5  2  0  0  0  0
  4  7  1  0  0  0  0
  5  6  1  0  0  0  0
  6 16  1  1  0  0  0
  7  8  1  0  0  0  0
  8  9  2  0  0  0  0
  8 49  1  0  0  0  0
  9 10  1  0  0  0  0
  9 15  1  0  0  0  0
 10 11  2  0  0  0  0
 11 12  1  0  0  0  0
 12 13  2  0  0  0  0
 12 14  1  0  0  0  0
 14 15  2  0  0  0  0
 16 17  2  0  0  0  0
 16 21  1  0  0  0  0
 17 18  1  0  0  0  0
 18 19  2  0  0  0  0
 19 20  1  0  0  0  0
 20 22  2  0  0  0  0
 20 21  1  0  0  0  0
 21 23  2  0  0  0  0
 22 25  1  0  0  0  0
 23 24  1  0  0  0  0
 24 25  2  0  0  0  0
 24 26  1  0  0  0  0
 25 27  1  0  0  0  0
 26 29  1  0  0  0  0
 26 31  2  0  0  0  0
 28 27  1  6  0  0  0
 28 29  1  0  0  0  0
 28 32  1  0  0  0  0
 29 30  2  0  0  0  0
 32 33  1  6  0  0  0
 32 35  1  0  0  0  0
 32 34  1  0  0  0  0
 34 35  1  0  0  0  0
 35 36  1  1  0  0  0
 38 37  1  1  0  0  0
 38 46  1  0  0  0  0
 38 39  1  0  0  0  0
 39 40  1  0  0  0  0
 40 42  1  0  0  0  0
 40 41  2  0  0  0  0
 41 43  1  0  0  0  0
 42 44  1  0  0  0  0
 42 45  2  0  0  0  0
 44 47  2  0  0  0  0
 44 46  1  0  0  0  0
 46 48  2  0  0  0  0
 49 51  1  0  0  0  0
 49 50  1  0  0  0  0
 50 51  1  0  0  0  0
M  END
>  <MODEL>
     853

>  <REMARK>
 VINA RESULT:     -12.4      0.000      0.000
  5 active torsions:
  status: ('A' for Active; 'I' for Inactive)
    1  A    between atoms: C_5  and  O_6 
    2  A    between atoms: O_6  and  C_7 
    3  A    between atoms: C_12  and  C_13 
    4  A    between atoms: C_24  and  C_29 
    5  A    between atoms: C_35  and  C_43 

>  <COMPND>
    /Users/duckhoan/Documents/VS_Code/ViDok/Auto_download_vidok/Ligand_receptor/ZINC000085862539_328_ligand.pdbqt 

>  <AUTHOR>
    GENERATED BY OPEN BABEL 3.1.0

>  <MASTER>
        0    0    0    0    0    0    0    0   51    0   51    0

$$$$
