/Users/duckhoan/Documents/VS_Code/ViDok/nearest_amino_acid-master/data/ligands/ZINC000013952160_192.pdb
 OpenBabel04122206063D

 93108  0  0  1  0  0  0  0  0999 V2000
  -10.9860   14.3320   69.3210 C   0  0  1  0  0  0  0  0  0  0  0  0
   -9.5400   14.2370   69.4890 O   0  0  0  0  0  0  0  0  0  0  0  0
   -8.6940   15.1760   68.9920 C   0  0  0  0  0  0  0  0  0  0  0  0
   -9.1060   16.1520   68.1280 C   0  0  0  0  0  0  0  0  0  0  0  0
  -10.5550   16.5960   68.1050 C   0  0  1  0  0  0  0  0  0  0  0  0
  -11.5960   15.5660   68.5680 C   0  0  2  0  0  0  0  0  0  0  0  0
  -10.4820   17.7540   68.9500 O   0  0  0  0  0  0  0  0  0  0  0  0
   -8.1320   16.9590   67.4970 C   0  0  0  0  0  0  0  0  0  0  0  0
   -6.7620   16.9790   67.8630 C   0  0  0  0  0  0  0  0  0  0  0  0
   -6.3770   16.1520   68.9290 C   0  0  0  0  0  0  0  0  0  0  0  0
   -7.3340   15.1770   69.3860 C   0  0  0  0  0  0  0  0  0  0  0  0
   -6.9330   14.2900   70.3050 F   0  0  0  0  0  0  0  0  0  0  0  0
   -5.0750   16.4220   69.4450 C   0  0  0  0  0  0  0  0  0  0  0  0
   -4.3980   15.5480   70.7510 Cl  0  0  0  0  0  0  0  0  0  0  0  0
   -4.2580   17.4520   68.9550 C   0  0  0  0  0  0  0  0  0  0  0  0
   -4.5780   18.2500   67.8300 C   0  0  0  0  0  0  0  0  0  0  0  0
   -5.8080   17.8500   67.2070 C   0  0  0  0  0  0  0  0  0  0  0  0
   -6.0820   18.2700   65.5460 Cl  0  0  0  0  0  0  0  0  0  0  0  0
  -11.5730   12.9360   68.8040 C   0  0  1  0  0  0  0  0  0  0  0  0
  -11.0280   12.5320   67.3980 C   0  0  2  0  0  0  0  0  0  0  0  0
  -12.0090   12.8120   66.2290 C   0  0  1  0  0  0  0  0  0  0  0  0
  -10.5910   11.0880   67.1980 C   0  0  0  0  0  0  0  0  0  0  0  0
  -12.1990   14.1540   66.1120 F   0  0  0  0  0  0  0  0  0  0  0  0
  -11.4750   12.3600   64.8600 C   0  0  0  0  0  0  0  0  0  0  0  0
  -10.0050   11.9020   64.9350 C   0  0  2  0  0  0  0  0  0  0  0  0
   -9.4620   11.5990   63.5400 C   0  0  0  0  0  0  0  0  0  0  0  0
   -9.9860   10.7690   65.9620 C   0  0  0  0  0  0  0  0  0  0  0  0
   -9.4410   10.1170   63.2170 C   0  0  0  0  0  0  0  0  0  0  0  0
   -8.8210    9.2870   64.3410 C   0  0  2  0  0  0  0  0  0  0  0  0
   -9.5820    9.4430   65.6440 C   0  0  0  0  0  0  0  0  0  0  0  0
   -7.1100    9.8420   64.6240 Cl  0  0  0  0  0  0  0  0  0  0  0  0
   -9.9170    8.3700   66.5290 C   0  0  0  0  0  0  0  0  0  0  0  0
  -10.5790    8.7410   67.7410 C   0  0  0  0  0  0  0  0  0  0  0  0
  -10.8940   10.0750   68.0920 C   0  0  0  0  0  0  0  0  0  0  0  0
  -11.6810   10.4160   69.3310 C   0  0  0  0  0  0  0  0  0  0  0  0
  -11.3150   11.8160   69.8480 C   0  0  0  0  0  0  0  0  0  0  0  0
   -9.7120    6.8930   66.2420 C   0  0  0  0  0  0  0  0  0  0  0  0
   -8.6800    6.4410   65.3740 C   0  0  0  0  0  0  0  0  0  0  0  0
   -8.4610    5.0670   65.0530 C   0  0  0  0  0  0  0  0  0  0  0  0
   -7.4100    4.6850   64.0060 C   0  0  2  0  0  0  0  0  0  0  0  0
   -9.2550    4.0900   65.6680 C   0  0  0  0  0  0  0  0  0  0  0  0
   -7.8870    5.1360   62.6100 C   0  0  0  0  0  0  0  0  0  0  0  0
   -7.0390    3.1730   64.0270 C   0  0  2  0  0  0  0  0  0  0  0  0
   -6.9260    4.7320   61.4980 C   0  0  0  0  0  0  0  0  0  0  0  0
   -6.6740    3.2200   61.4780 C   0  0  2  0  0  0  0  0  0  0  0  0
   -6.1080    2.7720   62.8460 C   0  0  2  0  0  0  0  0  0  0  0  0
   -5.7480    2.8710   60.3080 C   0  0  0  0  0  0  0  0  0  0  0  0
   -5.7640    1.2750   62.8680 C   0  0  0  0  0  0  0  0  0  0  0  0
   -8.3160    2.3220   64.1150 C   0  0  0  0  0  0  0  0  0  0  0  0
   -9.0880    2.6060   65.4110 C   0  0  1  0  0  0  0  0  0  0  0  0
   -8.4390    1.9040   66.6140 C   0  0  0  0  0  0  0  0  0  0  0  0
  -10.2620    4.5080   66.5410 C   0  0  0  0  0  0  0  0  0  0  0  0
  -10.5090    5.8650   66.7690 C   0  0  0  0  0  0  0  0  0  0  0  0
  -11.5950    6.1390   67.5020 F   0  0  0  0  0  0  0  0  0  0  0  0
  -12.5820   16.1650   69.4470 O   0  0  0  0  0  0  0  0  0  0  0  0
  -12.6850   15.8130   70.7730 C   0  0  0  0  0  0  0  0  0  0  0  0
  -11.8090   16.1410   71.8090 C   0  0  0  0  0  0  0  0  0  0  0  0
  -11.9350   15.5120   73.0670 C   0  0  0  0  0  0  0  0  0  0  0  0
  -12.9600   14.5990   73.3120 C   0  0  0  0  0  0  0  0  0  0  0  0
  -13.8900   14.3400   72.3130 C   0  0  0  0  0  0  0  0  0  0  0  0
  -13.7420   14.9340   71.0520 C   0  0  0  0  0  0  0  0  0  0  0  0
   -3.6600   19.3740   67.3130 C   0  0  0  0  0  0  0  0  0  0  0  0
   -3.5620   19.6260   65.9050 C   0  0  0  0  0  0  0  0  0  0  0  0
   -2.6020   20.5470   65.2800 C   0  0  0  0  0  0  0  0  0  0  0  0
   -2.1380   20.7840   63.8260 C   0  0  0  0  0  0  0  0  0  0  0  0
   -1.9970   21.3880   66.2370 N   0  0  0  0  0  0  0  0  0  0  0  0
   -1.1380   21.7300   63.5490 C   0  0  0  0  0  0  0  0  0  0  0  0
   -0.4150   21.7220   62.3240 N   0  0  0  0  0  0  0  0  0  0  0  0
   -0.7240   22.5110   64.6110 C   0  0  0  0  0  0  0  0  0  0  0  0
   -1.1620   22.3620   65.8640 N   0  0  0  0  0  0  0  0  0  0  0  0
   -2.1740   21.2360   67.5980 N   0  0  0  0  0  0  0  0  0  0  0  0
   -2.8040   20.1560   68.1360 C   0  0  0  0  0  0  0  0  0  0  0  0
   -1.5420   22.4630   68.6430 Cl  0  0  0  0  0  0  0  0  0  0  0  0
   -2.4760   19.8330   69.5790 C   0  0  0  0  0  0  0  0  0  0  0  0
   -2.5680   19.9720   62.5280 N   0  0  0  0  0  0  0  0  0  0  0  0
   -2.0590   18.6800   62.2220 N   0  0  0  0  0  0  0  0  0  0  0  0
   -0.4910   18.1800   62.7640 Cl  0  0  0  0  0  0  0  0  0  0  0  0
   -2.6640   17.8400   61.2940 C   0  0  0  0  0  0  0  0  0  0  0  0
   -3.6950   18.2560   60.4080 C   0  0  0  0  0  0  0  0  0  0  0  0
   -4.0800   19.5840   60.5660 C   0  0  0  0  0  0  0  0  0  0  0  0
   -4.3470   17.4820   59.3850 N   0  0  0  0  0  0  0  0  0  0  0  0
   -3.5960   20.4000   61.7040 C   0  0  1  0  0  0  0  0  0  0  0  0
   -4.9110   20.0750   59.6430 N   0  0  0  0  0  0  0  0  0  0  0  0
   -4.2800   21.5820   62.0390 N   0  0  0  0  0  0  0  0  0  0  0  0
   -5.3660   19.4190   58.5450 N   0  0  0  0  0  0  0  0  0  0  0  0
   -5.1570   18.0680   58.3760 C   0  0  2  0  0  0  0  0  0  0  0  0
   -6.2740   20.4180   57.4920 Cl  0  0  0  0  0  0  0  0  0  0  0  0
   -5.6510   17.2340   57.3900 N   0  0  0  0  0  0  0  0  0  0  0  0
   -5.5400   15.8900   57.4710 C   0  0  0  0  0  0  0  0  0  0  0  0
   -6.4220   17.7830   55.9590 Cl  0  0  0  0  0  0  0  0  0  0  0  0
   -4.9000   15.3260   58.5050 N   0  0  0  0  0  0  0  0  0  0  0  0
   -4.2490   16.1080   59.4100 N   0  0  0  0  0  0  0  0  0  0  0  0
   -4.9200   13.8260   58.6610 C   0  0  0  0  0  0  0  0  0  0  0  0
  1  6  1  0  0  0  0
  1 19  1  0  0  0  0
  1  2  1  6  0  0  0
  2  3  1  0  0  0  0
  3  4  2  0  0  0  0
  3 11  1  0  0  0  0
  4  8  1  0  0  0  0
  4  5  1  0  0  0  0
  5  6  1  0  0  0  0
  5  7  1  1  0  0  0
  6 55  1  1  0  0  0
  8  9  2  0  0  0  0
  9 17  1  0  0  0  0
  9 10  1  0  0  0  0
 10 11  2  0  0  0  0
 10 13  1  0  0  0  0
 11 12  1  0  0  0  0
 13 15  2  0  0  0  0
 13 14  1  0  0  0  0
 15 16  1  0  0  0  0
 16 17  2  0  0  0  0
 16 62  1  0  0  0  0
 17 18  1  0  0  0  0
 19 20  1  0  0  0  0
 19 36  1  1  0  0  0
 20 21  1  0  0  0  0
 20 22  1  1  0  0  0
 21 24  1  0  0  0  0
 21 23  1  6  0  0  0
 22 27  2  0  0  0  0
 22 34  1  0  0  0  0
 25 24  1  6  0  0  0
 25 26  1  0  0  0  0
 25 27  1  0  0  0  0
 26 28  1  0  0  0  0
 27 30  1  0  0  0  0
 28 29  1  0  0  0  0
 29 31  1  1  0  0  0
 29 30  1  0  0  0  0
 30 32  2  0  0  0  0
 32 37  1  0  0  0  0
 32 33  1  0  0  0  0
 33 34  2  0  0  0  0
 34 35  1  0  0  0  0
 35 36  1  0  0  0  0
 37 38  2  0  0  0  0
 37 53  1  0  0  0  0
 38 39  1  0  0  0  0
 39 40  1  0  0  0  0
 39 41  2  0  0  0  0
 40 42  1  6  0  0  0
 40 43  1  0  0  0  0
 41 50  1  0  0  0  0
 41 52  1  0  0  0  0
 42 44  1  0  0  0  0
 43 46  1  0  0  0  0
 43 49  1  6  0  0  0
 44 45  1  0  0  0  0
 45 47  1  6  0  0  0
 45 46  1  0  0  0  0
 46 48  1  6  0  0  0
 49 50  1  0  0  0  0
 50 51  1  1  0  0  0
 52 53  2  0  0  0  0
 53 54  1  0  0  0  0
 55 56  1  0  0  0  0
 56 61  2  0  0  0  0
 56 57  1  0  0  0  0
 57 58  2  0  0  0  0
 58 59  1  0  0  0  0
 59 60  2  0  0  0  0
 60 61  1  0  0  0  0
 62 63  1  0  0  0  0
 62 72  2  0  0  0  0
 63 64  2  0  0  0  0
 64 65  1  0  0  0  0
 64 66  1  0  0  0  0
 65 75  1  0  0  0  0
 65 67  2  0  0  0  0
 66 70  1  0  0  0  0
 66 71  1  0  0  0  0
 67 68  1  0  0  0  0
 67 69  1  0  0  0  0
 69 70  2  0  0  0  0
 71 72  1  0  0  0  0
 71 73  1  0  0  0  0
 72 74  1  0  0  0  0
 75 82  1  0  0  0  0
 75 76  1  0  0  0  0
 76 78  1  0  0  0  0
 76 77  1  0  0  0  0
 78 79  2  0  0  0  0
 79 81  1  0  0  0  0
 79 80  1  0  0  0  0
 80 83  2  0  0  0  0
 80 82  1  0  0  0  0
 81 92  1  0  0  0  0
 82 84  1  1  0  0  0
 83 85  1  0  0  0  0
 85 87  1  0  0  0  0
 85 86  1  0  0  0  0
 86 81  1  1  0  0  0
 86 88  1  0  0  0  0
 88 90  1  0  0  0  0
 88 89  1  0  0  0  0
 89 91  1  0  0  0  0
 91 93  1  0  0  0  0
 91 92  1  0  0  0  0
M  END
>  <MODEL>
     574

>  <REMARK>
 VINA RESULT:     -12.8      0.000      0.000
  6 active torsions:
  status: ('A' for Active; 'I' for Inactive)
    1  A    between atoms: C_12  and  C_36 
    2  A    between atoms: C_17  and  C_18 
    3  A    between atoms: C_41  and  O_42 
    4  A    between atoms: O_42  and  C_43 
    5  A    between atoms: C_58  and  C_61 
    6  A    between atoms: C_64  and  N_74 

>  <COMPND>
    /Users/duckhoan/Documents/VS_Code/ViDok/Auto_download_vidok/Ligand_receptor/ZINC000013952160_192_ligand.pdbqt 

>  <AUTHOR>
    GENERATED BY OPEN BABEL 3.1.0

>  <MASTER>
        0    0    0    0    0    0    0    0   93    0   93    0

$$$$
