/Users/duckhoan/Documents/VS_Code/ViDok/nearest_amino_acid-master/data/ligands/ZINC000085862539_1063.pdb
 OpenBabel04122202063D

 53 62  0  0  1  0  0  0  0  0999 V2000
  -10.9650   15.6380   67.1950 C   0  0  0  0  0  0  0  0  0  0  0  0
  -10.5760   16.7440   67.8790 C   0  0  0  0  0  0  0  0  0  0  0  0
  -10.8540   16.8980   69.2460 O   0  0  0  0  0  0  0  0  0  0  0  0
  -11.5780   15.9250   69.9220 C   0  0  0  0  0  0  0  0  0  0  0  0
  -11.8830   14.7510   69.3520 C   0  0  0  0  0  0  0  0  0  0  0  0
  -11.5690   14.4630   67.9260 C   0  0  0  0  0  0  0  0  0  0  0  0
  -12.6710   13.7090   70.0950 C   0  0  1  0  0  0  0  0  0  0  0  0
  -11.8350   12.5290   70.2530 N   0  0  0  0  0  0  0  0  0  0  0  0
  -12.3600   11.4870   70.9420 C   0  0  0  0  0  0  0  0  0  0  0  0
  -12.0890   10.2670   70.6520 N   0  0  0  0  0  0  0  0  0  0  0  0
  -13.1250   11.8080   72.0080 N   0  0  0  0  0  0  0  0  0  0  0  0
  -13.8860   13.0290   72.1310 C   0  0  0  0  0  0  0  0  0  0  0  0
  -13.1130   14.1280   71.4680 C   0  0  0  0  0  0  0  0  0  0  0  0
  -12.7910   15.3430   71.9720 C   0  0  0  0  0  0  0  0  0  0  0  0
  -12.0000   16.1970   71.2000 N   0  0  0  0  0  0  0  0  0  0  0  0
   -9.9220   17.9500   67.2780 C   0  0  0  0  0  0  0  0  0  0  0  0
  -10.6860   18.7350   66.4180 C   0  0  0  0  0  0  0  0  0  0  0  0
  -10.1460   19.7650   65.7620 N   0  0  0  0  0  0  0  0  0  0  0  0
  -10.9210   20.4850   64.9280 F   0  0  0  0  0  0  0  0  0  0  0  0
   -8.8770   20.0980   65.8730 N   0  0  0  0  0  0  0  0  0  0  0  0
   -8.0870   19.4340   66.7240 C   0  0  0  0  0  0  0  0  0  0  0  0
   -8.5890   18.3720   67.5030 C   0  0  0  0  0  0  0  0  0  0  0  0
   -6.7360   19.8290   66.8590 C   0  0  0  0  0  0  0  0  0  0  0  0
   -7.7230   17.8020   68.4620 C   0  0  0  0  0  0  0  0  0  0  0  0
   -6.3800   18.1510   68.5460 C   0  0  0  0  0  0  0  0  0  0  0  0
   -5.5170   17.4610   69.5060 C   0  0  0  0  0  0  0  0  0  0  0  0
   -5.8740   19.1520   67.7480 C   0  0  0  0  0  0  0  0  0  0  0  0
   -5.8300   16.3940   70.0130 O   0  0  0  0  0  0  0  0  0  0  0  0
   -4.2800   18.2100   69.8920 C   0  0  0  0  0  0  0  0  0  0  0  0
   -3.8990   18.2780   71.0590 O   0  0  0  0  0  0  0  0  0  0  0  0
   -3.6850   18.9580   68.7810 C   0  0  2  0  0  0  0  0  0  0  0  0
   -4.5690   19.5700   67.8040 O   0  0  0  0  0  0  0  0  0  0  0  0
   -2.4730   18.4680   68.2880 O   0  0  0  0  0  0  0  0  0  0  0  0
   -2.3880   19.6860   69.0910 C   0  0  1  0  0  0  0  0  0  0  0  0
   -2.5250   20.9980   68.4850 O   0  0  0  0  0  0  0  0  0  0  0  0
   -1.3200   20.4480   68.4560 C   0  0  1  0  0  0  0  0  0  0  0  0
   -0.0480   21.1840   69.1690 S   0  0  0  0  0  0  0  0  0  0  0  0
   -6.1780   20.7590   65.9500 N   0  0  0  0  0  0  0  0  0  0  0  0
  -10.8730   15.5880   65.8070 O   0  0  0  0  0  0  0  0  0  0  0  0
  -10.6790   14.3340   65.1370 C   0  0  1  0  0  0  0  0  0  0  0  0
  -10.5180   13.2970   66.1000 O   0  0  0  0  0  0  0  0  0  0  0  0
  -10.0650   12.1290   65.5190 C   0  0  0  0  0  0  0  0  0  0  0  0
   -9.0450   11.4580   66.0640 C   0  0  0  0  0  0  0  0  0  0  0  0
  -10.7260   11.6390   64.2770 C   0  0  0  0  0  0  0  0  0  0  0  0
   -8.3890   11.9130   67.1830 O   0  0  0  0  0  0  0  0  0  0  0  0
  -11.8920   12.5260   63.8510 C   0  0  0  0  0  0  0  0  0  0  0  0
  -10.3550   10.6790   63.6300 O   0  0  0  0  0  0  0  0  0  0  0  0
  -11.9200   13.9670   64.3290 C   0  0  0  0  0  0  0  0  0  0  0  0
  -12.8040   12.0750   63.1780 O   0  0  0  0  0  0  0  0  0  0  0  0
  -12.8700   14.7040   64.0990 O   0  0  0  0  0  0  0  0  0  0  0  0
  -13.2200   15.8300   73.2970 C   0  0  0  0  0  0  0  0  0  0  0  0
  -12.3230   16.6700   74.0150 N   0  0  0  0  0  0  0  0  0  0  0  0
  -12.4440   15.5100   74.4470 N   0  0  0  0  0  0  0  0  0  0  0  0
  1 39  1  0  0  0  0
  1  2  2  0  0  0  0
  1  6  1  0  0  0  0
  2 16  1  0  0  0  0
  2  3  1  0  0  0  0
  3  4  1  0  0  0  0
  4  5  1  0  0  0  0
  4 15  2  0  0  0  0
  5  6  2  0  0  0  0
  7  5  1  1  0  0  0
  7  8  1  0  0  0  0
  7 13  1  0  0  0  0
  8  9  2  0  0  0  0
  9 10  1  0  0  0  0
  9 11  1  0  0  0  0
 11 12  1  0  0  0  0
 12 13  1  0  0  0  0
 13 14  2  0  0  0  0
 14 15  1  0  0  0  0
 14 51  1  0  0  0  0
 16 17  1  0  0  0  0
 16 22  2  0  0  0  0
 17 18  1  0  0  0  0
 18 19  1  0  0  0  0
 18 20  1  0  0  0  0
 20 21  2  0  0  0  0
 21 23  1  0  0  0  0
 21 22  1  0  0  0  0
 22 24  1  0  0  0  0
 23 38  1  0  0  0  0
 23 27  2  0  0  0  0
 24 25  2  0  0  0  0
 25 27  1  0  0  0  0
 25 26  1  0  0  0  0
 26 29  1  0  0  0  0
 26 28  2  0  0  0  0
 27 32  1  0  0  0  0
 29 30  2  0  0  0  0
 31 29  1  1  0  0  0
 31 32  1  0  0  0  0
 31 33  1  0  0  0  0
 31 34  1  0  0  0  0
 34 33  1  6  0  0  0
 34 36  1  0  0  0  0
 34 35  1  0  0  0  0
 35 36  1  0  0  0  0
 36 37  1  1  0  0  0
 40 39  1  1  0  0  0
 40 48  1  0  0  0  0
 40 41  1  0  0  0  0
 41 42  1  0  0  0  0
 42 44  1  0  0  0  0
 42 43  2  0  0  0  0
 43 45  1  0  0  0  0
 44 47  2  0  0  0  0
 44 46  1  0  0  0  0
 46 49  2  0  0  0  0
 46 48  1  0  0  0  0
 48 50  2  0  0  0  0
 51 52  1  0  0  0  0
 51 53  1  0  0  0  0
 52 53  1  0  0  0  0
M  END
>  <MODEL>
     511

>  <REMARK>
 VINA RESULT:     -13.4      0.000      0.000
  4 active torsions:
  status: ('A' for Active; 'I' for Inactive)
    1  A    between atoms: C_5  and  O_6 
    2  A    between atoms: O_6  and  C_7 
    3  A    between atoms: C_8  and  C_25 
    4  A    between atoms: C_20  and  C_22 

>  <COMPND>
    /Users/duckhoan/Documents/VS_Code/ViDok/Auto_download_vidok/Ligand_receptor/ZINC000085862539_1063_ligand.pdbqt 

>  <AUTHOR>
    GENERATED BY OPEN BABEL 3.1.0

>  <MASTER>
        0    0    0    0    0    0    0    0   53    0   53    0

$$$$
