/Users/duckhoan/Documents/VS_Code/ViDok/nearest_amino_acid-master/data/ligands/ZINC000085862539_629.pdb
 OpenBabel04122206003D

 53 61  0  0  1  0  0  0  0  0999 V2000
  -10.9690   15.9930   67.4910 C   0  0  0  0  0  0  0  0  0  0  0  0
  -10.6260   17.0910   68.1950 C   0  0  1  0  0  0  0  0  0  0  0  0
  -10.8310   17.2140   69.5690 O   0  0  0  0  0  0  0  0  0  0  0  0
  -11.5110   16.2090   70.2480 C   0  0  2  0  0  0  0  0  0  0  0  0
  -11.8390   15.0530   69.6460 C   0  0  0  0  0  0  0  0  0  0  0  0
  -11.5210   14.7890   68.2050 C   0  0  0  0  0  0  0  0  0  0  0  0
  -12.6260   13.9850   70.3400 C   0  0  0  0  0  0  0  0  0  0  0  0
  -11.8200   12.8280   70.4530 O   0  0  0  0  0  0  0  0  0  0  0  0
  -12.4100   11.7470   71.0340 C   0  0  0  0  0  0  0  0  0  0  0  0
  -11.9510   10.6230   70.9190 O   0  0  0  0  0  0  0  0  0  0  0  0
  -13.5430   12.0050   71.7330 O   0  0  0  0  0  0  0  0  0  0  0  0
  -13.7880   13.2750   72.3310 C   0  0  1  0  0  0  0  0  0  0  0  0
  -12.9800   14.3660   71.7250 C   0  0  0  0  0  0  0  0  0  0  0  0
  -12.6060   15.5390   72.2850 C   0  0  0  0  0  0  0  0  0  0  0  0
  -11.8500   16.4510   71.5580 O   0  0  0  0  0  0  0  0  0  0  0  0
  -15.1310   13.6370   72.0870 O   0  0  0  0  0  0  0  0  0  0  0  0
   -9.9820   18.2620   67.5760 C   0  0  0  0  0  0  0  0  0  0  0  0
  -10.7390   19.0490   66.7220 C   0  0  0  0  0  0  0  0  0  0  0  0
  -10.2380   20.1270   66.1050 N   0  0  0  0  0  0  0  0  0  0  0  0
   -8.9380   20.4880   66.3370 N   0  0  0  0  0  0  0  0  0  0  0  0
   -8.1450   19.7870   67.1660 C   0  0  0  0  0  0  0  0  0  0  0  0
   -8.6390   18.6350   67.8130 C   0  0  0  0  0  0  0  0  0  0  0  0
   -6.8140   20.1700   67.4090 C   0  0  0  0  0  0  0  0  0  0  0  0
   -7.7710   17.9040   68.6550 C   0  0  0  0  0  0  0  0  0  0  0  0
   -6.4470   18.3040   68.8570 C   0  0  0  0  0  0  0  0  0  0  0  0
   -5.5440   17.4660   69.6490 C   0  0  0  0  0  0  0  0  0  0  0  0
   -5.9660   19.4530   68.2590 C   0  0  0  0  0  0  0  0  0  0  0  0
   -5.8950   16.3800   70.0830 O   0  0  0  0  0  0  0  0  0  0  0  0
   -4.1420   17.9860   69.8720 C   0  0  0  0  0  0  0  0  0  0  0  0
   -3.2870   17.2910   70.3990 O   0  0  0  0  0  0  0  0  0  0  0  0
   -3.9490   19.4460   69.5330 C   0  0  1  0  0  0  0  0  0  0  0  0
   -4.6870   19.9160   68.3950 O   0  0  0  0  0  0  0  0  0  0  0  0
   -6.3170   21.2890   66.7790 O   0  0  0  0  0  0  0  0  0  0  0  0
   -4.1670   20.3440   70.7140 C   0  0  1  0  0  0  0  0  0  0  0  0
   -5.1850   21.3600   70.5540 O   0  0  0  0  0  0  0  0  0  0  0  0
   -4.1350   19.6970   71.9820 O   0  0  0  0  0  0  0  0  0  0  0  0
   -3.1670   20.6130   71.7520 C   0  0  2  0  0  0  0  0  0  0  0  0
   -2.9290   21.6350   72.3580 O   0  0  0  0  0  0  0  0  0  0  0  0
  -10.7510   15.9320   66.1210 O   0  0  0  0  0  0  0  0  0  0  0  0
  -10.6100   14.6470   65.4840 C   0  0  1  0  0  0  0  0  0  0  0  0
  -10.2240   13.6500   66.4240 O   0  0  0  0  0  0  0  0  0  0  0  0
   -9.9610   12.4170   65.8510 C   0  0  0  0  0  0  0  0  0  0  0  0
   -8.9090   11.6990   66.2510 C   0  0  0  0  0  0  0  0  0  0  0  0
  -10.8750   11.8690   64.8170 C   0  0  0  0  0  0  0  0  0  0  0  0
   -8.0420   12.1550   67.2120 O   0  0  0  0  0  0  0  0  0  0  0  0
  -12.0510   12.7820   64.5510 C   0  0  0  0  0  0  0  0  0  0  0  0
  -10.7170   10.8210   64.2220 O   0  0  0  0  0  0  0  0  0  0  0  0
  -11.8420   14.2730   64.6530 C   0  0  0  0  0  0  0  0  0  0  0  0
  -13.1710   12.3290   64.3820 O   0  0  0  0  0  0  0  0  0  0  0  0
  -12.6130   15.0620   64.1280 O   0  0  0  0  0  0  0  0  0  0  0  0
  -12.9950   15.9750   73.6480 C   0  0  0  0  0  0  0  0  0  0  0  0
  -12.2510   15.5290   74.7960 O   0  0  0  0  0  0  0  0  0  0  0  0
  -12.1810   16.9050   74.3760 O   0  0  0  0  0  0  0  0  0  0  0  0
  1 39  1  0  0  0  0
  1  2  1  0  0  0  0
  1  6  2  0  0  0  0
  2 17  1  1  0  0  0
  2  3  1  0  0  0  0
  4  3  1  6  0  0  0
  4  5  1  0  0  0  0
  4 15  1  0  0  0  0
  5  6  1  0  0  0  0
  5  7  2  0  0  0  0
  7  8  1  0  0  0  0
  7 13  1  0  0  0  0
  8  9  1  0  0  0  0
  9 10  2  0  0  0  0
  9 11  1  0  0  0  0
 11 12  1  0  0  0  0
 12 13  1  0  0  0  0
 12 16  1  6  0  0  0
 13 14  2  0  0  0  0
 14 15  1  0  0  0  0
 14 51  1  0  0  0  0
 17 18  2  0  0  0  0
 17 22  1  0  0  0  0
 18 19  1  0  0  0  0
 19 20  2  0  0  0  0
 20 21  1  0  0  0  0
 21 23  2  0  0  0  0
 21 22  1  0  0  0  0
 22 24  2  0  0  0  0
 23 33  1  0  0  0  0
 23 27  1  0  0  0  0
 24 25  1  0  0  0  0
 25 27  2  0  0  0  0
 25 26  1  0  0  0  0
 26 29  1  0  0  0  0
 26 28  2  0  0  0  0
 27 32  1  0  0  0  0
 29 30  2  0  0  0  0
 31 29  1  1  0  0  0
 31 32  1  0  0  0  0
 31 34  1  0  0  0  0
 34 35  1  6  0  0  0
 34 37  1  0  0  0  0
 34 36  1  0  0  0  0
 36 37  1  0  0  0  0
 37 38  1  1  0  0  0
 40 39  1  1  0  0  0
 40 48  1  0  0  0  0
 40 41  1  0  0  0  0
 41 42  1  0  0  0  0
 42 44  1  0  0  0  0
 42 43  2  0  0  0  0
 43 45  1  0  0  0  0
 44 47  2  0  0  0  0
 44 46  1  0  0  0  0
 46 49  2  0  0  0  0
 46 48  1  0  0  0  0
 48 50  2  0  0  0  0
 51 53  1  0  0  0  0
 51 52  1  0  0  0  0
 52 53  1  0  0  0  0
M  END
>  <MODEL>
     568

>  <REMARK>
 VINA RESULT:     -14.3      0.000      0.000
  5 active torsions:
  status: ('A' for Active; 'I' for Inactive)
    1  A    between atoms: C_5  and  O_6 
    2  A    between atoms: O_6  and  C_7 
    3  A    between atoms: C_8  and  C_26 
    4  A    between atoms: C_20  and  C_22 
    5  A    between atoms: C_38  and  C_43 

>  <COMPND>
    /Users/duckhoan/Documents/VS_Code/ViDok/Auto_download_vidok/Ligand_receptor/ZINC000085862539_629_ligand.pdbqt 

>  <AUTHOR>
    GENERATED BY OPEN BABEL 3.1.0

>  <MASTER>
        0    0    0    0    0    0    0    0   53    0   53    0

$$$$
