/Users/duckhoan/Documents/VS_Code/ViDok/nearest_amino_acid-master/data/ligands/ZINC000085862539_1238.pdb
 OpenBabel04122206253D

 54 62  0  0  1  0  0  0  0  0999 V2000
  -10.9570   15.8640   66.9770 C   0  0  0  0  0  0  0  0  0  0  0  0
  -10.6830   16.9880   67.6750 C   0  0  1  0  0  0  0  0  0  0  0  0
  -11.0310   17.1400   69.0310 O   0  0  0  0  0  0  0  0  0  0  0  0
  -11.6240   16.0600   69.7270 C   0  0  1  0  0  0  0  0  0  0  0  0
  -11.9670   14.9290   69.0790 C   0  0  0  0  0  0  0  0  0  0  0  0
  -11.7200   14.7320   67.6170 C   0  0  0  0  0  0  0  0  0  0  0  0
  -12.5850   13.7420   69.7870 C   0  0  0  0  0  0  0  0  0  0  0  0
  -11.7410   12.6220   69.5780 O   0  0  0  0  0  0  0  0  0  0  0  0
  -12.0680   11.4980   70.2530 C   0  0  0  0  0  0  0  0  0  0  0  0
  -11.5790   10.3780   69.8830 N   0  0  0  0  0  0  0  0  0  0  0  0
  -12.8970   11.5830   71.3120 O   0  0  0  0  0  0  0  0  0  0  0  0
  -13.1570   12.7590   71.9100 C   0  0  0  0  0  0  0  0  0  0  0  0
  -13.8220   12.8690   72.9270 O   0  0  0  0  0  0  0  0  0  0  0  0
  -12.6540   13.9580   71.2380 C   0  0  0  0  0  0  0  0  0  0  0  0
  -12.3020   15.1080   71.8520 C   0  0  0  0  0  0  0  0  0  0  0  0
  -11.8290   16.1790   71.0920 O   0  0  0  0  0  0  0  0  0  0  0  0
   -9.8950   18.1070   67.0620 C   0  0  0  0  0  0  0  0  0  0  0  0
  -10.5930   18.8580   66.1670 N   0  0  0  0  0  0  0  0  0  0  0  0
  -10.0010   19.9270   65.6450 N   0  0  0  0  0  0  0  0  0  0  0  0
  -10.6840   20.6820   64.7600 F   0  0  0  0  0  0  0  0  0  0  0  0
   -8.7480   20.2730   65.9580 C   0  0  0  0  0  0  0  0  0  0  0  0
   -8.0120   19.4940   66.8540 C   0  0  0  0  0  0  0  0  0  0  0  0
   -8.5940   18.3680   67.4110 N   0  0  0  0  0  0  0  0  0  0  0  0
   -6.6970   19.8470   67.2060 C   0  0  0  0  0  0  0  0  0  0  0  0
   -7.8560   17.5990   68.2640 C   0  0  0  0  0  0  0  0  0  0  0  0
   -6.5510   17.9590   68.6190 C   0  0  0  0  0  0  0  0  0  0  0  0
   -5.8230   17.1440   69.5790 C   0  0  0  0  0  0  0  0  0  0  0  0
   -5.9680   19.1050   68.1240 C   0  0  0  0  0  0  0  0  0  0  0  0
   -6.3210   16.0880   69.9290 O   0  0  0  0  0  0  0  0  0  0  0  0
   -4.4930   17.6740   70.0700 C   0  0  0  0  0  0  0  0  0  0  0  0
   -3.6860   16.9160   70.5770 O   0  0  0  0  0  0  0  0  0  0  0  0
   -4.3080   19.1640   69.8600 C   0  0  1  0  0  0  0  0  0  0  0  0
   -4.7660   19.5870   68.5480 O   0  0  0  0  0  0  0  0  0  0  0  0
   -6.1670   20.9570   66.6770 F   0  0  0  0  0  0  0  0  0  0  0  0
   -4.9090   19.9670   70.9940 C   0  0  1  0  0  0  0  0  0  0  0  0
   -6.2910   20.3240   70.8540 O   0  0  0  0  0  0  0  0  0  0  0  0
   -4.4850   19.6120   72.3120 O   0  0  0  0  0  0  0  0  0  0  0  0
   -4.1320   20.8370   71.8820 C   0  0  1  0  0  0  0  0  0  0  0  0
   -3.0350   21.3430   71.7380 O   0  0  0  0  0  0  0  0  0  0  0  0
  -10.4800   15.7100   65.6850 O   0  0  0  0  0  0  0  0  0  0  0  0
  -10.3470   14.3740   65.1240 C   0  0  1  0  0  0  0  0  0  0  0  0
  -10.0930   13.4560   66.1640 O   0  0  0  0  0  0  0  0  0  0  0  0
   -9.8670   12.1920   65.6430 C   0  0  0  0  0  0  0  0  0  0  0  0
   -8.8540   11.4410   66.0890 C   0  0  0  0  0  0  0  0  0  0  0  0
  -10.7350   11.6770   64.5330 C   0  0  0  0  0  0  0  0  0  0  0  0
   -7.9730   11.8820   67.0470 O   0  0  0  0  0  0  0  0  0  0  0  0
  -11.8770   12.5750   64.0990 C   0  0  2  0  0  0  0  0  0  0  0  0
  -10.5130   10.5890   64.0090 O   0  0  0  0  0  0  0  0  0  0  0  0
  -11.6200   14.0460   64.3540 C   0  0  0  0  0  0  0  0  0  0  0  0
  -13.0450   12.2040   64.7000 F   0  0  0  0  0  0  0  0  0  0  0  0
  -12.3630   14.9510   63.9590 O   0  0  0  0  0  0  0  0  0  0  0  0
  -12.3020   15.3580   73.3190 C   0  0  0  0  0  0  0  0  0  0  0  0
  -12.0190   16.6800   73.8100 O   0  0  0  0  0  0  0  0  0  0  0  0
  -13.3560   16.1570   73.8970 O   0  0  0  0  0  0  0  0  0  0  0  0
  1 40  1  0  0  0  0
  1  6  2  0  0  0  0
  1  2  1  0  0  0  0
  2 17  1  1  0  0  0
  2  3  1  0  0  0  0
  4  3  1  1  0  0  0
  4  5  1  0  0  0  0
  4 16  1  0  0  0  0
  5  6  1  0  0  0  0
  5  7  2  0  0  0  0
  7  8  1  0  0  0  0
  7 14  1  0  0  0  0
  8  9  1  0  0  0  0
  9 10  2  0  0  0  0
  9 11  1  0  0  0  0
 11 12  1  0  0  0  0
 12 14  1  0  0  0  0
 12 13  2  0  0  0  0
 14 15  2  0  0  0  0
 15 16  1  0  0  0  0
 15 52  1  0  0  0  0
 17 18  2  0  0  0  0
 17 23  1  0  0  0  0
 18 19  1  0  0  0  0
 19 20  1  0  0  0  0
 19 21  1  0  0  0  0
 21 22  2  0  0  0  0
 22 24  1  0  0  0  0
 22 23  1  0  0  0  0
 23 25  1  0  0  0  0
 24 34  1  0  0  0  0
 24 28  2  0  0  0  0
 25 26  2  0  0  0  0
 26 28  1  0  0  0  0
 26 27  1  0  0  0  0
 27 29  2  0  0  0  0
 27 30  1  0  0  0  0
 28 33  1  0  0  0  0
 30 31  2  0  0  0  0
 32 30  1  1  0  0  0
 32 33  1  0  0  0  0
 32 35  1  0  0  0  0
 35 36  1  6  0  0  0
 35 38  1  0  0  0  0
 35 37  1  0  0  0  0
 37 38  1  0  0  0  0
 38 39  1  6  0  0  0
 41 40  1  1  0  0  0
 41 49  1  0  0  0  0
 41 42  1  0  0  0  0
 42 43  1  0  0  0  0
 43 45  1  0  0  0  0
 43 44  2  0  0  0  0
 44 46  1  0  0  0  0
 45 48  2  0  0  0  0
 45 47  1  0  0  0  0
 47 49  1  0  0  0  0
 47 50  1  1  0  0  0
 49 51  2  0  0  0  0
 52 53  1  0  0  0  0
 52 54  1  0  0  0  0
 53 54  1  0  0  0  0
M  END
>  <MODEL>
     296

>  <REMARK>
 VINA RESULT:     -13.5      0.000      0.000
  5 active torsions:
  status: ('A' for Active; 'I' for Inactive)
    1  A    between atoms: C_5  and  O_6 
    2  A    between atoms: O_6  and  C_7 
    3  A    between atoms: C_8  and  C_26 
    4  A    between atoms: C_21  and  C_23 
    5  A    between atoms: C_39  and  C_44 

>  <COMPND>
    /Users/duckhoan/Documents/VS_Code/ViDok/Auto_download_vidok/Ligand_receptor/ZINC000085862539_1238_ligand.pdbqt 

>  <AUTHOR>
    GENERATED BY OPEN BABEL 3.1.0

>  <MASTER>
        0    0    0    0    0    0    0    0   54    0   54    0

$$$$
