/Users/duckhoan/Documents/VS_Code/ViDok/nearest_amino_acid-master/data/ligands/ZINC000085862539_810.pdb
 OpenBabel04112221333D

 54 62  0  0  1  0  0  0  0  0999 V2000
  -10.6900   15.5210   67.5370 C   0  0  0  0  0  0  0  0  0  0  0  0
  -10.3300   16.6430   68.2060 C   0  0  0  0  0  0  0  0  0  0  0  0
  -10.4960   16.7360   69.6000 O   0  0  0  0  0  0  0  0  0  0  0  0
  -11.3310   15.8310   70.2630 C   0  0  2  0  0  0  0  0  0  0  0  0
  -11.6670   14.6690   69.6780 C   0  0  0  0  0  0  0  0  0  0  0  0
  -11.2080   14.3210   68.2960 C   0  0  0  0  0  0  0  0  0  0  0  0
  -12.5890   13.6820   70.3310 C   0  0  0  0  0  0  0  0  0  0  0  0
  -11.8950   12.4620   70.5060 O   0  0  0  0  0  0  0  0  0  0  0  0
  -12.6600   11.4440   70.9940 C   0  0  0  0  0  0  0  0  0  0  0  0
  -12.3480   10.2750   70.8500 O   0  0  0  0  0  0  0  0  0  0  0  0
  -13.8110   11.8410   71.5970 O   0  0  0  0  0  0  0  0  0  0  0  0
  -13.8130   13.0560   72.3380 C   0  0  1  0  0  0  0  0  0  0  0  0
  -12.9940   14.1160   71.6850 C   0  0  0  0  0  0  0  0  0  0  0  0
  -12.6290   15.3030   72.2210 C   0  0  0  0  0  0  0  0  0  0  0  0
  -11.8030   16.1690   71.5160 O   0  0  0  0  0  0  0  0  0  0  0  0
  -15.1290   13.5730   72.3480 O   0  0  0  0  0  0  0  0  0  0  0  0
   -9.7140   17.8570   67.5580 C   0  0  0  0  0  0  0  0  0  0  0  0
  -10.4420   18.5730   66.6020 C   0  0  0  0  0  0  0  0  0  0  0  0
   -9.9230   19.6340   65.9780 N   0  0  0  0  0  0  0  0  0  0  0  0
  -10.6830   20.3080   65.0920 F   0  0  0  0  0  0  0  0  0  0  0  0
   -8.6830   20.0370   66.1730 N   0  0  0  0  0  0  0  0  0  0  0  0
   -7.9100   19.3970   67.0510 C   0  0  0  0  0  0  0  0  0  0  0  0
   -8.3870   18.3030   67.8030 C   0  0  0  0  0  0  0  0  0  0  0  0
   -6.5860   19.8210   67.2300 C   0  0  0  0  0  0  0  0  0  0  0  0
   -7.5010   17.7260   68.7410 C   0  0  0  0  0  0  0  0  0  0  0  0
   -6.1730   18.1440   68.8620 C   0  0  0  0  0  0  0  0  0  0  0  0
   -5.2640   17.3970   69.7350 C   0  0  0  0  0  0  0  0  0  0  0  0
   -5.7060   19.2110   68.1270 C   0  0  0  0  0  0  0  0  0  0  0  0
   -5.6380   16.3450   70.2390 O   0  0  0  0  0  0  0  0  0  0  0  0
   -3.8630   17.9570   69.8840 C   0  0  0  0  0  0  0  0  0  0  0  0
   -2.9700   17.2630   70.3450 O   0  0  0  0  0  0  0  0  0  0  0  0
   -3.7210   19.3990   69.4350 C   0  0  1  0  0  0  0  0  0  0  0  0
   -4.4320   19.6950   68.2190 O   0  0  0  0  0  0  0  0  0  0  0  0
   -6.1430   20.8570   66.5010 F   0  0  0  0  0  0  0  0  0  0  0  0
   -4.1420   20.3410   70.5170 C   0  0  1  0  0  0  0  0  0  0  0  0
   -5.1170   21.3580   70.1540 O   0  0  0  0  0  0  0  0  0  0  0  0
   -4.2920   19.7680   71.8080 O   0  0  0  0  0  0  0  0  0  0  0  0
   -3.2980   20.6780   71.6750 C   0  0  2  0  0  0  0  0  0  0  0  0
   -3.1620   21.7560   72.1890 O   0  0  0  0  0  0  0  0  0  0  0  0
  -10.5930   15.4610   66.1560 O   0  0  0  0  0  0  0  0  0  0  0  0
  -10.3510   14.1980   65.5030 C   0  0  1  0  0  0  0  0  0  0  0  0
   -9.9300   13.2060   66.4310 O   0  0  0  0  0  0  0  0  0  0  0  0
   -9.6210   11.9880   65.8420 C   0  0  0  0  0  0  0  0  0  0  0  0
   -8.7360   11.1610   66.4060 C   0  0  0  0  0  0  0  0  0  0  0  0
  -10.3200   11.5420   64.6030 C   0  0  0  0  0  0  0  0  0  0  0  0
   -8.0550   11.4680   67.5590 O   0  0  0  0  0  0  0  0  0  0  0  0
  -11.5270   12.3840   64.2500 C   0  0  0  0  0  0  0  0  0  0  0  0
   -9.9310   10.5700   63.8440 N   0  0  0  0  0  0  0  0  0  0  0  0
  -11.6600   13.7540   64.8820 C   0  0  0  0  0  0  0  0  0  0  0  0
  -12.3180   11.9870   63.4120 O   0  0  0  0  0  0  0  0  0  0  0  0
  -12.6880   14.4170   64.8570 O   0  0  0  0  0  0  0  0  0  0  0  0
  -13.0440   15.7490   73.5720 C   0  0  0  0  0  0  0  0  0  0  0  0
  -12.2830   15.3860   74.7300 O   0  0  0  0  0  0  0  0  0  0  0  0
  -12.2860   16.7500   74.2720 O   0  0  0  0  0  0  0  0  0  0  0  0
  1 40  1  0  0  0  0
  1  2  2  0  0  0  0
  1  6  1  0  0  0  0
  2 17  1  0  0  0  0
  2  3  1  0  0  0  0
  4  3  1  6  0  0  0
  4  5  1  0  0  0  0
  4 15  1  0  0  0  0
  5  6  1  0  0  0  0
  5  7  2  0  0  0  0
  7  8  1  0  0  0  0
  7 13  1  0  0  0  0
  8  9  1  0  0  0  0
  9 10  2  0  0  0  0
  9 11  1  0  0  0  0
 11 12  1  0  0  0  0
 12 13  1  0  0  0  0
 12 16  1  6  0  0  0
 13 14  2  0  0  0  0
 14 15  1  0  0  0  0
 14 52  1  0  0  0  0
 17 18  1  0  0  0  0
 17 23  2  0  0  0  0
 18 19  1  0  0  0  0
 19 20  1  0  0  0  0
 19 21  1  0  0  0  0
 21 22  2  0  0  0  0
 22 24  1  0  0  0  0
 22 23  1  0  0  0  0
 23 25  1  0  0  0  0
 24 34  1  0  0  0  0
 24 28  2  0  0  0  0
 25 26  2  0  0  0  0
 26 28  1  0  0  0  0
 26 27  1  0  0  0  0
 27 30  1  0  0  0  0
 27 29  2  0  0  0  0
 28 33  1  0  0  0  0
 30 31  2  0  0  0  0
 32 30  1  1  0  0  0
 32 33  1  0  0  0  0
 32 35  1  0  0  0  0
 35 36  1  6  0  0  0
 35 38  1  0  0  0  0
 35 37  1  0  0  0  0
 37 38  1  0  0  0  0
 38 39  1  1  0  0  0
 41 40  1  1  0  0  0
 41 49  1  0  0  0  0
 41 42  1  0  0  0  0
 42 43  1  0  0  0  0
 43 45  1  0  0  0  0
 43 44  2  0  0  0  0
 44 46  1  0  0  0  0
 45 48  2  0  0  0  0
 45 47  1  0  0  0  0
 47 50  2  0  0  0  0
 47 49  1  0  0  0  0
 49 51  2  0  0  0  0
 52 54  1  0  0  0  0
 52 53  1  0  0  0  0
 53 54  1  0  0  0  0
M  END
>  <MODEL>
      17

>  <REMARK>
 VINA RESULT:     -13.4      0.000      0.000
  5 active torsions:
  status: ('A' for Active; 'I' for Inactive)
    1  A    between atoms: C_5  and  O_6 
    2  A    between atoms: O_6  and  C_7 
    3  A    between atoms: C_8  and  C_26 
    4  A    between atoms: C_20  and  C_22 
    5  A    between atoms: C_39  and  C_44 

>  <COMPND>
    /Users/duckhoan/Documents/VS_Code/ViDok/Auto_download_vidok/Ligand_receptor/ZINC000085862539_810_ligand.pdbqt 

>  <AUTHOR>
    GENERATED BY OPEN BABEL 3.1.0

>  <MASTER>
        0    0    0    0    0    0    0    0   54    0   54    0

$$$$
