/Users/duckhoan/Documents/VS_Code/ViDok/nearest_amino_acid-master/data/ligands/ZINC000085862539_917.pdb
 OpenBabel04112221573D

 54 62  0  0  1  0  0  0  0  0999 V2000
  -11.2710   15.9760   67.2260 C   0  0  0  0  0  0  0  0  0  0  0  0
  -10.7810   17.0250   67.9270 C   0  0  0  0  0  0  0  0  0  0  0  0
  -10.9800   17.1780   69.3010 O   0  0  0  0  0  0  0  0  0  0  0  0
  -11.5810   16.1480   70.0210 C   0  0  0  0  0  0  0  0  0  0  0  0
  -12.0640   15.0500   69.4180 C   0  0  0  0  0  0  0  0  0  0  0  0
  -12.0560   14.8930   67.9360 C   0  0  0  0  0  0  0  0  0  0  0  0
  -12.6650   13.9210   70.2200 C   0  0  1  0  0  0  0  0  0  0  0  0
  -11.8730   12.7590   69.9750 O   0  0  0  0  0  0  0  0  0  0  0  0
  -11.9850   11.6590   70.7610 C   0  0  0  0  0  0  0  0  0  0  0  0
  -11.4380   10.6100   70.4490 O   0  0  0  0  0  0  0  0  0  0  0  0
  -12.6980   11.7750   71.9080 O   0  0  0  0  0  0  0  0  0  0  0  0
  -13.2810   12.9900   72.3610 C   0  0  1  0  0  0  0  0  0  0  0  0
  -12.6900   14.1630   71.6840 C   0  0  0  0  0  0  0  0  0  0  0  0
  -12.2100   15.3020   72.2290 C   0  0  0  0  0  0  0  0  0  0  0  0
  -11.6600   16.2670   71.3870 N   0  0  0  0  0  0  0  0  0  0  0  0
  -14.6670   12.9740   72.0610 O   0  0  0  0  0  0  0  0  0  0  0  0
   -9.8210   17.9960   67.3620 C   0  0  0  0  0  0  0  0  0  0  0  0
  -10.3340   18.8410   66.3820 C   0  0  0  0  0  0  0  0  0  0  0  0
   -9.5760   19.7900   65.8290 N   0  0  0  0  0  0  0  0  0  0  0  0
  -10.1020   20.5710   64.8650 F   0  0  0  0  0  0  0  0  0  0  0  0
   -8.3280   20.0000   66.1880 N   0  0  0  0  0  0  0  0  0  0  0  0
   -7.7690   19.2220   67.1180 C   0  0  0  0  0  0  0  0  0  0  0  0
   -8.4660   18.1590   67.7320 C   0  0  0  0  0  0  0  0  0  0  0  0
   -6.4530   19.4850   67.4940 C   0  0  0  0  0  0  0  0  0  0  0  0
   -7.7610   17.3480   68.6590 C   0  0  0  0  0  0  0  0  0  0  0  0
   -6.4300   17.6420   69.0100 C   0  0  0  0  0  0  0  0  0  0  0  0
   -5.7110   16.8260   69.9970 C   0  0  0  0  0  0  0  0  0  0  0  0
   -5.7810   18.7330   68.4550 C   0  0  0  0  0  0  0  0  0  0  0  0
   -6.2160   15.8360   70.4960 O   0  0  0  0  0  0  0  0  0  0  0  0
   -4.3110   17.2760   70.3490 C   0  0  0  0  0  0  0  0  0  0  0  0
   -3.4750   16.4760   70.7410 O   0  0  0  0  0  0  0  0  0  0  0  0
   -4.0600   18.7480   70.1180 C   0  0  1  0  0  0  0  0  0  0  0  0
   -4.5380   19.1700   68.8270 O   0  0  0  0  0  0  0  0  0  0  0  0
   -5.8250   20.5370   66.9440 F   0  0  0  0  0  0  0  0  0  0  0  0
   -4.5400   19.6280   71.2710 C   0  0  1  0  0  0  0  0  0  0  0  0
   -5.8690   19.3680   71.8750 N   0  0  0  0  0  0  0  0  0  0  0  0
   -3.5360   19.9140   72.2610 O   0  0  0  0  0  0  0  0  0  0  0  0
   -3.9750   20.9490   71.5400 C   0  0  1  0  0  0  0  0  0  0  0  0
   -3.3930   21.7650   70.8450 O   0  0  0  0  0  0  0  0  0  0  0  0
  -10.9740   15.8000   65.8750 O   0  0  0  0  0  0  0  0  0  0  0  0
  -10.6590   14.4520   65.4690 C   0  0  1  0  0  0  0  0  0  0  0  0
  -10.2050   13.6690   66.5720 O   0  0  0  0  0  0  0  0  0  0  0  0
   -9.8310   12.3670   66.2700 C   0  0  0  0  0  0  0  0  0  0  0  0
   -8.9370   11.7250   67.0340 C   0  0  0  0  0  0  0  0  0  0  0  0
  -10.4350   11.6130   65.1300 C   0  0  0  0  0  0  0  0  0  0  0  0
   -8.3310   12.3100   68.1150 O   0  0  0  0  0  0  0  0  0  0  0  0
  -11.4970   12.3880   64.3720 C   0  0  0  0  0  0  0  0  0  0  0  0
  -10.1050   10.4860   64.8020 O   0  0  0  0  0  0  0  0  0  0  0  0
  -11.8700   13.7560   64.8790 C   0  0  0  0  0  0  0  0  0  0  0  0
  -11.9620   11.9790   63.3230 O   0  0  0  0  0  0  0  0  0  0  0  0
  -13.0080   14.1930   64.8030 O   0  0  0  0  0  0  0  0  0  0  0  0
  -12.2290   15.6140   73.6770 C   0  0  0  0  0  0  0  0  0  0  0  0
  -12.1360   16.9640   74.1580 O   0  0  0  0  0  0  0  0  0  0  0  0
  -13.3650   16.2290   74.3090 O   0  0  0  0  0  0  0  0  0  0  0  0
  1 40  1  0  0  0  0
  1  2  2  0  0  0  0
  1  6  1  0  0  0  0
  2 17  1  0  0  0  0
  2  3  1  0  0  0  0
  3  4  1  0  0  0  0
  4  5  1  0  0  0  0
  4 15  2  0  0  0  0
  5  6  2  0  0  0  0
  7  5  1  6  0  0  0
  7  8  1  0  0  0  0
  7 13  1  0  0  0  0
  8  9  1  0  0  0  0
  9 10  2  0  0  0  0
  9 11  1  0  0  0  0
 11 12  1  0  0  0  0
 12 13  1  0  0  0  0
 12 16  1  6  0  0  0
 13 14  2  0  0  0  0
 14 15  1  0  0  0  0
 14 52  1  0  0  0  0
 17 18  1  0  0  0  0
 17 23  2  0  0  0  0
 18 19  1  0  0  0  0
 19 20  1  0  0  0  0
 19 21  1  0  0  0  0
 21 22  2  0  0  0  0
 22 24  1  0  0  0  0
 22 23  1  0  0  0  0
 23 25  1  0  0  0  0
 24 34  1  0  0  0  0
 24 28  2  0  0  0  0
 25 26  2  0  0  0  0
 26 28  1  0  0  0  0
 26 27  1  0  0  0  0
 27 30  1  0  0  0  0
 27 29  2  0  0  0  0
 28 33  1  0  0  0  0
 30 31  2  0  0  0  0
 32 30  1  1  0  0  0
 32 33  1  0  0  0  0
 32 35  1  0  0  0  0
 35 38  1  0  0  0  0
 35 36  1  1  0  0  0
 35 37  1  0  0  0  0
 37 38  1  0  0  0  0
 38 39  1  6  0  0  0
 41 40  1  1  0  0  0
 41 49  1  0  0  0  0
 41 42  1  0  0  0  0
 42 43  1  0  0  0  0
 43 45  1  0  0  0  0
 43 44  2  0  0  0  0
 44 46  1  0  0  0  0
 45 47  1  0  0  0  0
 45 48  2  0  0  0  0
 47 50  2  0  0  0  0
 47 49  1  0  0  0  0
 49 51  2  0  0  0  0
 52 53  1  0  0  0  0
 52 54  1  0  0  0  0
 53 54  1  0  0  0  0
M  END
>  <MODEL>
     213

>  <REMARK>
 VINA RESULT:     -12.0      0.000      0.000
  5 active torsions:
  status: ('A' for Active; 'I' for Inactive)
    1  A    between atoms: C_5  and  O_6 
    2  A    between atoms: O_6  and  C_7 
    3  A    between atoms: C_8  and  C_26 
    4  A    between atoms: C_20  and  C_22 
    5  A    between atoms: C_39  and  C_44 

>  <COMPND>
    /Users/duckhoan/Documents/VS_Code/ViDok/Auto_download_vidok/Ligand_receptor/ZINC000085862539_917_ligand.pdbqt 

>  <AUTHOR>
    GENERATED BY OPEN BABEL 3.1.0

>  <MASTER>
        0    0    0    0    0    0    0    0   54    0   54    0

$$$$
