/Users/duckhoan/Documents/VS_Code/ViDok/nearest_amino_acid-master/data/ligands/ZINC000085862539_108.pdb
 OpenBabel04112223153D

 45 50  0  0  1  0  0  0  0  0999 V2000
  -10.2400   16.7940   68.0770 C   0  0  0  0  0  0  0  0  0  0  0  0
   -9.9580   15.5920   67.5190 C   0  0  0  0  0  0  0  0  0  0  0  0
  -10.3320   14.3300   68.2620 C   0  0  0  0  0  0  0  0  0  0  0  0
  -11.2860   14.5310   69.4080 C   0  0  0  0  0  0  0  0  0  0  0  0
  -11.5850   15.8300   69.8180 C   0  0  0  0  0  0  0  0  0  0  0  0
  -10.9900   16.9380   69.2450 O   0  0  0  0  0  0  0  0  0  0  0  0
  -12.4750   16.1140   70.8010 N   0  0  0  0  0  0  0  0  0  0  0  0
  -13.0630   15.0640   71.4080 C   0  0  0  0  0  0  0  0  0  0  0  0
  -13.9360   15.4410   72.3760 O   0  0  0  0  0  0  0  0  0  0  0  0
  -12.8030   13.7430   71.1010 C   0  0  0  0  0  0  0  0  0  0  0  0
  -11.9190   13.4390   70.0530 C   0  0  0  0  0  0  0  0  0  0  0  0
  -11.5060   12.1250   69.7660 N   0  0  0  0  0  0  0  0  0  0  0  0
   -9.7380   18.0980   67.5550 C   0  0  0  0  0  0  0  0  0  0  0  0
  -10.5630   18.6840   66.6470 N   0  0  0  0  0  0  0  0  0  0  0  0
  -10.1700   19.8550   66.0980 C   0  0  0  0  0  0  0  0  0  0  0  0
   -8.9880   20.5050   66.4140 C   0  0  0  0  0  0  0  0  0  0  0  0
   -8.1310   19.9200   67.3480 C   0  0  0  0  0  0  0  0  0  0  0  0
   -6.9200   20.5530   67.7180 C   0  0  0  0  0  0  0  0  0  0  0  0
   -8.4950   18.6710   67.9220 C   0  0  0  0  0  0  0  0  0  0  0  0
   -6.0510   19.9630   68.6380 C   0  0  0  0  0  0  0  0  0  0  0  0
   -4.9250   20.6730   68.9650 O   0  0  0  0  0  0  0  0  0  0  0  0
   -6.3860   18.7100   69.1530 C   0  0  0  0  0  0  0  0  0  0  0  0
   -4.0560   20.1130   69.9530 C   0  0  2  0  0  0  0  0  0  0  0  0
   -4.0700   18.6140   70.0830 C   0  0  0  0  0  0  0  0  0  0  0  0
   -5.4480   18.0350   70.0410 C   0  0  0  0  0  0  0  0  0  0  0  0
   -3.0820   17.9150   70.2290 O   0  0  0  0  0  0  0  0  0  0  0  0
   -5.7410   17.0430   70.6900 O   0  0  0  0  0  0  0  0  0  0  0  0
   -7.5830   18.0750   68.8070 C   0  0  0  0  0  0  0  0  0  0  0  0
   -4.2970   20.6990   71.3530 C   0  0  0  0  0  0  0  0  0  0  0  0
   -4.4380   22.1160   71.2880 O   0  0  0  0  0  0  0  0  0  0  0  0
   -9.2720   15.4960   66.3060 O   0  0  0  0  0  0  0  0  0  0  0  0
   -9.8560   14.7450   65.2300 C   0  0  1  0  0  0  0  0  0  0  0  0
  -10.0150   13.3640   65.5600 O   0  0  0  0  0  0  0  0  0  0  0  0
  -10.7220   12.6350   64.5370 C   0  0  2  0  0  0  0  0  0  0  0  0
  -12.1820   12.9500   64.7580 C   0  0  0  0  0  0  0  0  0  0  0  0
  -13.0950   12.1620   64.7060 O   0  0  0  0  0  0  0  0  0  0  0  0
  -12.3960   14.4420   64.9740 C   0  0  0  0  0  0  0  0  0  0  0  0
  -13.5040   14.8860   65.2080 O   0  0  0  0  0  0  0  0  0  0  0  0
  -11.2010   15.3750   64.8330 C   0  0  0  0  0  0  0  0  0  0  0  0
  -11.3370   16.4700   64.3100 O   0  0  0  0  0  0  0  0  0  0  0  0
  -10.4180   11.1490   64.6610 C   0  0  0  0  0  0  0  0  0  0  0  0
  -10.1150   10.6470   63.3540 O   0  0  0  0  0  0  0  0  0  0  0  0
  -13.5090   12.7080   71.8140 N   0  0  0  0  0  0  0  0  0  0  0  0
  -13.0180   11.5690   71.8060 O   0  0  0  0  0  0  0  0  0  0  0  0
  -14.5110   13.0410   72.4620 O   0  0  0  0  0  0  0  0  0  0  0  0
  1  2  2  0  0  0  0
  1 13  1  0  0  0  0
  1  6  1  0  0  0  0
  2 31  1  0  0  0  0
  2  3  1  0  0  0  0
  3  4  2  0  0  0  0
  4  5  1  0  0  0  0
  4 11  1  0  0  0  0
  5  6  1  0  0  0  0
  5  7  2  0  0  0  0
  7  8  1  0  0  0  0
  8 10  1  0  0  0  0
  8  9  2  0  0  0  0
 10 11  2  0  0  0  0
 10 43  1  0  0  0  0
 11 12  1  0  0  0  0
 13 14  2  0  0  0  0
 13 19  1  0  0  0  0
 14 15  1  0  0  0  0
 15 16  2  0  0  0  0
 16 17  1  0  0  0  0
 17 18  2  0  0  0  0
 17 19  1  0  0  0  0
 18 20  1  0  0  0  0
 19 28  2  0  0  0  0
 20 21  1  0  0  0  0
 20 22  2  0  0  0  0
 21 23  1  0  0  0  0
 22 28  1  0  0  0  0
 22 25  1  0  0  0  0
 23 24  1  0  0  0  0
 23 29  1  1  0  0  0
 24 25  1  0  0  0  0
 24 26  2  0  0  0  0
 25 27  2  0  0  0  0
 29 30  1  0  0  0  0
 32 31  1  1  0  0  0
 32 39  1  0  0  0  0
 32 33  1  0  0  0  0
 33 34  1  0  0  0  0
 34 41  1  1  0  0  0
 34 35  1  0  0  0  0
 35 36  2  0  0  0  0
 35 37  1  0  0  0  0
 37 39  1  0  0  0  0
 37 38  2  0  0  0  0
 39 40  2  0  0  0  0
 41 42  1  0  0  0  0
 43 44  2  0  0  0  0
 43 45  2  0  0  0  0
M  END
>  <MODEL>
     250

>  <REMARK>
 VINA RESULT:     -11.3      0.000      0.000
  6 active torsions:
  status: ('A' for Active; 'I' for Inactive)
    1  A    between atoms: C_2  and  C_3 
    2  A    between atoms: C_11  and  C_19 
    3  A    between atoms: C_20  and  O_21 
    4  A    between atoms: O_21  and  C_22 
    5  A    between atoms: C_24  and  C_25 
    6  A    between atoms: C_40  and  N_43 

>  <COMPND>
    /Users/duckhoan/Documents/VS_Code/ViDok/Auto_download_vidok/Ligand_receptor/ZINC000085862539_108_ligand.pdbqt 

>  <AUTHOR>
    GENERATED BY OPEN BABEL 3.1.0

>  <MASTER>
        0    0    0    0    0    0    0    0   45    0   45    0

$$$$
