/Users/duckhoan/Documents/VS_Code/ViDok/nearest_amino_acid-master/data/ligands/ZINC000085862539_911.pdb
 OpenBabel04112223423D

 55 63  0  0  1  0  0  0  0  0999 V2000
   -3.6930   19.3050   70.5050 C   0  0  2  0  0  0  0  0  0  0  0  0
   -4.8320   19.3380   71.3610 C   0  0  0  0  0  0  0  0  0  0  0  0
   -5.8180   19.2740   71.9620 N   0  0  0  0  0  0  0  0  0  0  0  0
   -2.4380   19.4480   71.1960 O   0  0  0  0  0  0  0  0  0  0  0  0
   -2.8490   20.4770   70.4410 C   0  0  1  0  0  0  0  0  0  0  0  0
   -2.3400   21.0450   69.5000 O   0  0  0  0  0  0  0  0  0  0  0  0
   -3.6950   18.3160   69.3670 C   0  0  1  0  0  0  0  0  0  0  0  0
   -4.1140   16.9280   69.8130 C   0  0  0  0  0  0  0  0  0  0  0  0
   -5.5370   16.5370   69.4820 C   0  0  0  0  0  0  0  0  0  0  0  0
   -3.4040   16.1700   70.4540 O   0  0  0  0  0  0  0  0  0  0  0  0
   -6.3210   17.4490   68.6480 C   0  0  0  0  0  0  0  0  0  0  0  0
   -6.0360   15.4930   69.8740 O   0  0  0  0  0  0  0  0  0  0  0  0
   -7.6870   17.2060   68.4270 C   0  0  0  0  0  0  0  0  0  0  0  0
   -5.6970   18.5260   68.0530 C   0  0  0  0  0  0  0  0  0  0  0  0
   -8.4520   18.0400   67.5770 C   0  0  0  0  0  0  0  0  0  0  0  0
   -9.8340   17.8830   67.3340 C   0  0  0  0  0  0  0  0  0  0  0  0
   -7.8030   19.1060   66.9270 C   0  0  0  0  0  0  0  0  0  0  0  0
  -10.4480   18.7860   66.4680 C   0  0  0  0  0  0  0  0  0  0  0  0
   -9.7400   19.7560   65.8760 N   0  0  0  0  0  0  0  0  0  0  0  0
  -10.3590   20.5960   65.0240 F   0  0  0  0  0  0  0  0  0  0  0  0
   -8.4490   19.9200   66.0850 N   0  0  0  0  0  0  0  0  0  0  0  0
   -6.4460   19.3190   67.1780 C   0  0  0  0  0  0  0  0  0  0  0  0
   -5.8350   20.3410   66.5570 F   0  0  0  0  0  0  0  0  0  0  0  0
   -4.3910   18.8620   68.2380 O   0  0  0  0  0  0  0  0  0  0  0  0
  -10.6730   16.8510   67.9890 C   0  0  1  0  0  0  0  0  0  0  0  0
  -11.2230   15.8270   67.3000 C   0  0  0  0  0  0  0  0  0  0  0  0
  -11.9940   14.7520   68.0210 C   0  0  0  0  0  0  0  0  0  0  0  0
  -12.0190   14.9390   69.5080 C   0  0  0  0  0  0  0  0  0  0  0  0
  -11.5000   16.0260   70.1090 C   0  0  2  0  0  0  0  0  0  0  0  0
  -12.6920   13.8390   70.2810 C   0  0  0  0  0  0  0  0  0  0  0  0
  -10.8270   17.0100   69.3700 O   0  0  0  0  0  0  0  0  0  0  0  0
  -11.6020   16.1990   71.4740 O   0  0  0  0  0  0  0  0  0  0  0  0
  -12.2260   15.2510   72.2740 C   0  0  0  0  0  0  0  0  0  0  0  0
  -12.7400   14.1280   71.7290 C   0  0  0  0  0  0  0  0  0  0  0  0
  -13.4290   13.0050   72.4180 C   0  0  2  0  0  0  0  0  0  0  0  0
  -13.0590   11.7390   71.8820 O   0  0  0  0  0  0  0  0  0  0  0  0
  -14.8080   13.2130   72.2010 O   0  0  0  0  0  0  0  0  0  0  0  0
  -12.2100   11.5680   70.8400 C   0  0  0  0  0  0  0  0  0  0  0  0
  -11.8880   12.6820   70.1300 O   0  0  0  0  0  0  0  0  0  0  0  0
  -11.7170   10.4860   70.5660 O   0  0  0  0  0  0  0  0  0  0  0  0
  -11.0310   15.6990   65.9290 O   0  0  0  0  0  0  0  0  0  0  0  0
  -10.6670   14.3850   65.4330 C   0  0  1  0  0  0  0  0  0  0  0  0
  -10.0850   13.6080   66.4720 O   0  0  0  0  0  0  0  0  0  0  0  0
   -9.8040   12.2820   66.1820 C   0  0  0  0  0  0  0  0  0  0  0  0
   -8.8630   11.6310   66.8770 C   0  0  0  0  0  0  0  0  0  0  0  0
  -10.5530   11.5060   65.1460 C   0  0  0  0  0  0  0  0  0  0  0  0
   -8.1070   12.2360   67.8490 O   0  0  0  0  0  0  0  0  0  0  0  0
  -11.5780   12.3200   64.3820 C   0  0  0  0  0  0  0  0  0  0  0  0
  -10.3560   10.3290   64.8980 O   0  0  0  0  0  0  0  0  0  0  0  0
  -11.9000   13.7030   64.8770 C   0  0  0  0  0  0  0  0  0  0  0  0
  -12.0450   11.9340   63.3250 O   0  0  0  0  0  0  0  0  0  0  0  0
  -13.0170   14.1900   64.8000 O   0  0  0  0  0  0  0  0  0  0  0  0
  -12.3200   15.5790   73.7160 C   0  0  0  0  0  0  0  0  0  0  0  0
  -11.9110   16.8720   74.1910 O   0  0  0  0  0  0  0  0  0  0  0  0
  -13.3020   16.5000   74.2010 O   0  0  0  0  0  0  0  0  0  0  0  0
  1  7  1  0  0  0  0
  1  5  1  0  0  0  0
  1  4  1  0  0  0  0
  1  2  1  1  0  0  0
  2  3  3  0  0  0  0
  4  5  1  0  0  0  0
  5  6  1  6  0  0  0
  7 24  1  6  0  0  0
  7  8  1  0  0  0  0
  8  9  1  0  0  0  0
  8 10  2  0  0  0  0
  9 11  1  0  0  0  0
  9 12  2  0  0  0  0
 11 14  1  0  0  0  0
 11 13  2  0  0  0  0
 13 15  1  0  0  0  0
 14 22  2  0  0  0  0
 14 24  1  0  0  0  0
 15 17  1  0  0  0  0
 15 16  2  0  0  0  0
 16 18  1  0  0  0  0
 17 21  2  0  0  0  0
 17 22  1  0  0  0  0
 18 19  1  0  0  0  0
 19 20  1  0  0  0  0
 19 21  1  0  0  0  0
 22 23  1  0  0  0  0
 25 16  1  1  0  0  0
 25 26  1  0  0  0  0
 25 31  1  0  0  0  0
 26 41  1  0  0  0  0
 26 27  2  0  0  0  0
 27 28  1  0  0  0  0
 28 30  2  0  0  0  0
 29 28  1  1  0  0  0
 29 31  1  0  0  0  0
 29 32  1  0  0  0  0
 30 39  1  0  0  0  0
 30 34  1  0  0  0  0
 32 33  1  0  0  0  0
 33 34  2  0  0  0  0
 33 53  1  0  0  0  0
 34 35  1  0  0  0  0
 35 36  1  0  0  0  0
 35 37  1  6  0  0  0
 36 38  1  0  0  0  0
 38 39  1  0  0  0  0
 38 40  2  0  0  0  0
 42 41  1  1  0  0  0
 42 50  1  0  0  0  0
 42 43  1  0  0  0  0
 43 44  1  0  0  0  0
 44 46  1  0  0  0  0
 44 45  2  0  0  0  0
 45 47  1  0  0  0  0
 46 48  1  0  0  0  0
 46 49  2  0  0  0  0
 48 51  2  0  0  0  0
 48 50  1  0  0  0  0
 50 52  2  0  0  0  0
 53 54  1  0  0  0  0
 53 55  1  0  0  0  0
 54 55  1  0  0  0  0
M  END
>  <MODEL>
      70

>  <REMARK>
 VINA RESULT:     -12.4      0.000      0.000
  5 active torsions:
  status: ('A' for Active; 'I' for Inactive)
    1  A    between atoms: C_5  and  O_6 
    2  A    between atoms: O_6  and  C_7 
    3  A    between atoms: C_8  and  C_26 
    4  A    between atoms: C_20  and  C_22 
    5  A    between atoms: C_39  and  C_44 

>  <COMPND>
    /Users/duckhoan/Documents/VS_Code/ViDok/Auto_download_vidok/Ligand_receptor/ZINC000085862539_911_ligand.pdbqt 

>  <AUTHOR>
    GENERATED BY OPEN BABEL 3.1.0

>  <MASTER>
        0    0    0    0    0    0    0    0   55    0   55    0

$$$$
