/Users/duckhoan/Documents/VS_Code/ViDok/nearest_amino_acid-master/data/ligands/ZINC000085862539_1163.pdb
 OpenBabel04122204163D

 52 59  0  0  1  0  0  0  0  0999 V2000
  -10.2440   15.1670   67.7940 C   0  0  0  0  0  0  0  0  0  0  0  0
  -10.4970   16.4560   68.1240 C   0  0  0  0  0  0  0  0  0  0  0  0
  -11.3060   16.7870   69.2250 O   0  0  0  0  0  0  0  0  0  0  0  0
  -11.7430   15.8050   70.1100 C   0  0  0  0  0  0  0  0  0  0  0  0
  -11.5390   14.5080   69.8460 C   0  0  0  0  0  0  0  0  0  0  0  0
  -10.8290   14.0390   68.6120 C   0  0  0  0  0  0  0  0  0  0  0  0
  -12.1890   13.4980   70.6820 C   0  0  0  0  0  0  0  0  0  0  0  0
  -12.0670   12.2280   70.2710 N   0  0  0  0  0  0  0  0  0  0  0  0
  -12.7820   11.3110   70.9310 C   0  0  0  0  0  0  0  0  0  0  0  0
  -13.5590   11.5780   71.9870 N   0  0  0  0  0  0  0  0  0  0  0  0
  -13.6360   12.8560   72.3860 C   0  0  0  0  0  0  0  0  0  0  0  0
  -12.9380   13.8830   71.7800 C   0  0  0  0  0  0  0  0  0  0  0  0
  -12.9440   15.3020   72.2590 C   0  0  0  0  0  0  0  0  0  0  0  0
  -12.4630   16.2490   71.2310 N   0  0  0  0  0  0  0  0  0  0  0  0
   -9.9590   17.6380   67.3620 C   0  0  0  0  0  0  0  0  0  0  0  0
  -10.8150   18.3720   66.5320 C   0  0  0  0  0  0  0  0  0  0  0  0
  -10.3750   19.4210   65.8290 N   0  0  0  0  0  0  0  0  0  0  0  0
  -11.2320   20.0730   65.0200 F   0  0  0  0  0  0  0  0  0  0  0  0
   -9.1310   19.8550   65.9070 N   0  0  0  0  0  0  0  0  0  0  0  0
   -8.2580   19.2360   66.7060 C   0  0  0  0  0  0  0  0  0  0  0  0
   -8.6180   18.0970   67.4540 C   0  0  0  0  0  0  0  0  0  0  0  0
   -6.9530   19.7350   66.8220 C   0  0  0  0  0  0  0  0  0  0  0  0
   -7.6140   17.5000   68.2570 C   0  0  0  0  0  0  0  0  0  0  0  0
   -6.3400   18.0580   68.3950 C   0  0  0  0  0  0  0  0  0  0  0  0
   -5.9920   19.1770   67.6710 C   0  0  0  0  0  0  0  0  0  0  0  0
   -5.4200   17.4970   69.3900 C   0  0  0  0  0  0  0  0  0  0  0  0
   -4.7780   19.7930   67.7630 O   0  0  0  0  0  0  0  0  0  0  0  0
   -3.7560   19.1670   68.5830 C   0  0  1  0  0  0  0  0  0  0  0  0
   -4.1920   18.3190   69.7010 C   0  0  0  0  0  0  0  0  0  0  0  0
   -2.6080   18.7120   67.9100 O   0  0  0  0  0  0  0  0  0  0  0  0
   -2.4480   19.9100   68.7510 C   0  0  1  0  0  0  0  0  0  0  0  0
   -3.6710   18.2650   70.8030 O   0  0  0  0  0  0  0  0  0  0  0  0
   -2.6250   21.2230   68.1170 O   0  0  0  0  0  0  0  0  0  0  0  0
   -1.4160   20.7060   68.1560 C   0  0  1  0  0  0  0  0  0  0  0  0
   -0.3590   21.1210   68.5590 O   0  0  0  0  0  0  0  0  0  0  0  0
   -5.7010   16.4640   69.9970 O   0  0  0  0  0  0  0  0  0  0  0  0
   -6.6200   20.8220   66.1080 F   0  0  0  0  0  0  0  0  0  0  0  0
   -9.4480   14.8660   66.6970 O   0  0  0  0  0  0  0  0  0  0  0  0
   -9.8120   13.7900   65.8110 C   0  0  1  0  0  0  0  0  0  0  0  0
  -10.1220   12.5840   66.5060 O   0  0  0  0  0  0  0  0  0  0  0  0
  -10.2750   11.5080   65.6390 C   0  0  0  0  0  0  0  0  0  0  0  0
   -9.8540   10.2870   65.9880 C   0  0  0  0  0  0  0  0  0  0  0  0
  -10.9010   11.7000   64.2940 C   0  0  0  0  0  0  0  0  0  0  0  0
   -9.2420   10.0300   67.1900 O   0  0  0  0  0  0  0  0  0  0  0  0
  -11.5060   13.0890   64.1120 C   0  0  0  0  0  0  0  0  0  0  0  0
  -10.8330   10.8900   63.3890 O   0  0  0  0  0  0  0  0  0  0  0  0
  -11.0800   14.1720   65.0810 C   0  0  0  0  0  0  0  0  0  0  0  0
  -12.2480   13.3540   63.1850 O   0  0  0  0  0  0  0  0  0  0  0  0
  -11.7030   15.2090   65.2610 O   0  0  0  0  0  0  0  0  0  0  0  0
  -12.0520   15.4430   73.4500 C   0  0  0  0  0  0  0  0  0  0  0  0
  -12.6860   15.8310   74.7290 N   0  0  0  0  0  0  0  0  0  0  0  0
  -12.1390   16.6660   74.2700 N   0  0  0  0  0  0  0  0  0  0  0  0
  1 38  1  0  0  0  0
  1  2  2  0  0  0  0
  1  6  1  0  0  0  0
  2 15  1  0  0  0  0
  2  3  1  0  0  0  0
  3  4  1  0  0  0  0
  4  5  1  0  0  0  0
  4 14  2  0  0  0  0
  5  6  2  0  0  0  0
  5  7  1  0  0  0  0
  7  8  2  0  0  0  0
  7 12  1  0  0  0  0
  8  9  1  0  0  0  0
  9 10  2  0  0  0  0
 10 11  1  0  0  0  0
 11 12  2  0  0  0  0
 12 13  1  0  0  0  0
 13 14  1  0  0  0  0
 15 16  1  0  0  0  0
 15 21  2  0  0  0  0
 16 17  1  0  0  0  0
 17 18  1  0  0  0  0
 17 19  1  0  0  0  0
 19 20  2  0  0  0  0
 20 22  1  0  0  0  0
 20 21  1  0  0  0  0
 21 23  1  0  0  0  0
 22 37  1  0  0  0  0
 22 25  2  0  0  0  0
 23 24  2  0  0  0  0
 24 25  1  0  0  0  0
 24 26  1  0  0  0  0
 25 27  1  0  0  0  0
 26 29  1  0  0  0  0
 26 36  2  0  0  0  0
 28 27  1  6  0  0  0
 28 30  1  0  0  0  0
 28 31  1  0  0  0  0
 28 29  1  0  0  0  0
 29 32  2  0  0  0  0
 31 30  1  6  0  0  0
 31 33  1  0  0  0  0
 31 34  1  0  0  0  0
 33 34  1  0  0  0  0
 34 35  1  1  0  0  0
 39 38  1  1  0  0  0
 39 47  1  0  0  0  0
 39 40  1  0  0  0  0
 40 41  1  0  0  0  0
 41 43  1  0  0  0  0
 41 42  2  0  0  0  0
 42 44  1  0  0  0  0
 43 46  2  0  0  0  0
 43 45  1  0  0  0  0
 45 48  2  0  0  0  0
 45 47  1  0  0  0  0
 47 49  2  0  0  0  0
 50 52  1  0  0  0  0
 51 52  1  0  0  0  0
M  END
>  <MODEL>
     604

>  <REMARK>
 VINA RESULT:     -12.1      0.000      0.000
  4 active torsions:
  status: ('A' for Active; 'I' for Inactive)
    1  A    between atoms: C_5  and  O_6 
    2  A    between atoms: O_6  and  C_7 
    3  A    between atoms: C_8  and  C_24 
    4  A    between atoms: C_19  and  C_21 

>  <COMPND>
    /Users/duckhoan/Documents/VS_Code/ViDok/Auto_download_vidok/Ligand_receptor/ZINC000085862539_1163_ligand.pdbqt 

>  <AUTHOR>
    GENERATED BY OPEN BABEL 3.1.0

>  <MASTER>
        0    0    0    0    0    0    0    0   52    0   52    0

$$$$
