/Users/duckhoan/Documents/VS_Code/ViDok/nearest_amino_acid-master/data/ligands/ZINC000085862539_802.pdb
 OpenBabel04112219413D

 54 62  0  0  1  0  0  0  0  0999 V2000
  -10.9150   15.7540   67.1210 C   0  0  0  0  0  0  0  0  0  0  0  0
  -10.6670   16.8660   67.8580 C   0  0  1  0  0  0  0  0  0  0  0  0
  -11.0030   16.9420   69.2250 O   0  0  0  0  0  0  0  0  0  0  0  0
  -11.6510   15.8620   69.8540 C   0  0  1  0  0  0  0  0  0  0  0  0
  -11.8350   14.6940   69.2110 C   0  0  0  0  0  0  0  0  0  0  0  0
  -11.4400   14.4970   67.7780 C   0  0  0  0  0  0  0  0  0  0  0  0
  -12.4990   13.5110   69.8640 C   0  0  0  0  0  0  0  0  0  0  0  0
  -11.5370   12.4790   69.9670 O   0  0  0  0  0  0  0  0  0  0  0  0
  -11.8970   11.3460   70.6370 C   0  0  0  0  0  0  0  0  0  0  0  0
  -11.2280   10.3300   70.5450 O   0  0  0  0  0  0  0  0  0  0  0  0
  -13.0220   11.4160   71.4030 O   0  0  0  0  0  0  0  0  0  0  0  0
  -13.5810   12.5860   71.7660 C   0  0  0  0  0  0  0  0  0  0  0  0
  -14.9730   12.4650   72.6660 S   0  0  0  0  0  0  0  0  0  0  0  0
  -12.9410   13.8020   71.2440 C   0  0  0  0  0  0  0  0  0  0  0  0
  -12.7370   14.9940   71.8510 C   0  0  0  0  0  0  0  0  0  0  0  0
  -12.0910   16.0240   71.1570 O   0  0  0  0  0  0  0  0  0  0  0  0
   -9.9830   18.0950   67.3230 C   0  0  0  0  0  0  0  0  0  0  0  0
  -10.6690   18.9000   66.4080 C   0  0  0  0  0  0  0  0  0  0  0  0
  -10.0960   19.9930   65.8790 N   0  0  0  0  0  0  0  0  0  0  0  0
  -10.7590   20.7020   64.9440 F   0  0  0  0  0  0  0  0  0  0  0  0
   -8.8920   20.4020   66.2210 N   0  0  0  0  0  0  0  0  0  0  0  0
   -8.1810   19.7050   67.1060 C   0  0  0  0  0  0  0  0  0  0  0  0
   -8.6700   18.5040   67.6720 C   0  0  0  0  0  0  0  0  0  0  0  0
   -6.9140   20.1760   67.4690 C   0  0  0  0  0  0  0  0  0  0  0  0
   -7.8050   17.7920   68.5310 C   0  0  0  0  0  0  0  0  0  0  0  0
   -6.5150   18.2720   68.8320 C   0  0  0  0  0  0  0  0  0  0  0  0
   -5.6010   17.4550   69.6310 C   0  0  0  0  0  0  0  0  0  0  0  0
   -6.0770   19.4870   68.3450 C   0  0  0  0  0  0  0  0  0  0  0  0
   -5.9160   16.3180   69.9480 O   0  0  0  0  0  0  0  0  0  0  0  0
   -4.2840   18.0780   70.0450 C   0  0  0  0  0  0  0  0  0  0  0  0
   -3.4470   17.4230   70.6450 O   0  0  0  0  0  0  0  0  0  0  0  0
   -4.2100   19.5750   69.8390 C   0  0  1  0  0  0  0  0  0  0  0  0
   -4.8570   20.0230   68.6300 O   0  0  0  0  0  0  0  0  0  0  0  0
   -6.4910   21.3390   66.9460 F   0  0  0  0  0  0  0  0  0  0  0  0
   -4.7180   20.3290   71.0360 C   0  0  1  0  0  0  0  0  0  0  0  0
   -6.1550   20.3840   71.1900 O   0  0  0  0  0  0  0  0  0  0  0  0
   -3.9840   20.0970   72.2380 O   0  0  0  0  0  0  0  0  0  0  0  0
   -3.9680   21.3670   71.7560 C   0  0  2  0  0  0  0  0  0  0  0  0
   -4.3470   22.3760   72.2890 O   0  0  0  0  0  0  0  0  0  0  0  0
  -10.6290   15.7020   65.7650 O   0  0  0  0  0  0  0  0  0  0  0  0
  -10.2760   14.4170   65.1510 C   0  0  1  0  0  0  0  0  0  0  0  0
   -9.8060   13.4910   66.1270 O   0  0  0  0  0  0  0  0  0  0  0  0
   -9.6960   12.1880   65.6610 C   0  0  0  0  0  0  0  0  0  0  0  0
   -8.6390   11.4120   65.9330 C   0  0  0  0  0  0  0  0  0  0  0  0
  -10.7960   11.5730   64.8670 C   0  0  0  0  0  0  0  0  0  0  0  0
   -7.5390   11.8410   66.6310 O   0  0  0  0  0  0  0  0  0  0  0  0
  -11.8990   12.5520   64.5570 C   0  0  0  0  0  0  0  0  0  0  0  0
  -10.8110   10.4260   64.4640 O   0  0  0  0  0  0  0  0  0  0  0  0
  -11.5450   14.0090   64.4130 C   0  0  0  0  0  0  0  0  0  0  0  0
  -13.0630   12.1970   64.5020 O   0  0  0  0  0  0  0  0  0  0  0  0
  -12.2340   14.7730   63.7510 O   0  0  0  0  0  0  0  0  0  0  0  0
  -13.1070   15.3400   73.2540 C   0  0  0  0  0  0  0  0  0  0  0  0
  -12.1390   15.1670   74.3070 O   0  0  0  0  0  0  0  0  0  0  0  0
  -12.5290   16.4880   73.8930 O   0  0  0  0  0  0  0  0  0  0  0  0
  1 40  1  0  0  0  0
  1  6  2  0  0  0  0
  1  2  1  0  0  0  0
  2 17  1  1  0  0  0
  2  3  1  0  0  0  0
  4  3  1  1  0  0  0
  4  5  1  0  0  0  0
  4 16  1  0  0  0  0
  5  6  1  0  0  0  0
  5  7  2  0  0  0  0
  7  8  1  0  0  0  0
  7 14  1  0  0  0  0
  8  9  1  0  0  0  0
  9 10  2  0  0  0  0
  9 11  1  0  0  0  0
 11 12  1  0  0  0  0
 12 14  1  0  0  0  0
 12 13  2  0  0  0  0
 14 15  2  0  0  0  0
 15 16  1  0  0  0  0
 15 52  1  0  0  0  0
 17 18  1  0  0  0  0
 17 23  2  0  0  0  0
 18 19  1  0  0  0  0
 19 20  1  0  0  0  0
 19 21  1  0  0  0  0
 21 22  2  0  0  0  0
 22 24  1  0  0  0  0
 22 23  1  0  0  0  0
 23 25  1  0  0  0  0
 24 34  1  0  0  0  0
 24 28  2  0  0  0  0
 25 26  2  0  0  0  0
 26 28  1  0  0  0  0
 26 27  1  0  0  0  0
 27 29  2  0  0  0  0
 27 30  1  0  0  0  0
 28 33  1  0  0  0  0
 30 31  2  0  0  0  0
 32 30  1  1  0  0  0
 32 33  1  0  0  0  0
 32 35  1  0  0  0  0
 35 36  1  1  0  0  0
 35 38  1  0  0  0  0
 35 37  1  0  0  0  0
 37 38  1  0  0  0  0
 38 39  1  1  0  0  0
 41 40  1  1  0  0  0
 41 49  1  0  0  0  0
 41 42  1  0  0  0  0
 42 43  1  0  0  0  0
 43 45  1  0  0  0  0
 43 44  2  0  0  0  0
 44 46  1  0  0  0  0
 45 48  2  0  0  0  0
 45 47  1  0  0  0  0
 47 49  1  0  0  0  0
 47 50  2  0  0  0  0
 49 51  2  0  0  0  0
 52 54  1  0  0  0  0
 52 53  1  0  0  0  0
 53 54  1  0  0  0  0
M  END
>  <MODEL>
      34

>  <REMARK>
 VINA RESULT:     -11.6      0.000      0.000
  5 active torsions:
  status: ('A' for Active; 'I' for Inactive)
    1  A    between atoms: C_5  and  O_6 
    2  A    between atoms: O_6  and  C_7 
    3  A    between atoms: C_8  and  C_26 
    4  A    between atoms: C_21  and  C_23 
    5  A    between atoms: C_39  and  C_44 

>  <COMPND>
    /Users/duckhoan/Documents/VS_Code/ViDok/Auto_download_vidok/Ligand_receptor/ZINC000085862539_802_ligand.pdbqt 

>  <AUTHOR>
    GENERATED BY OPEN BABEL 3.1.0

>  <MASTER>
        0    0    0    0    0    0    0    0   54    0   54    0

$$$$
