/Users/duckhoan/Documents/VS_Code/ViDok/nearest_amino_acid-master/data/ligands/ZINC000085862539_1189.pdb
 OpenBabel04122204313D

 54 63  0  0  1  0  0  0  0  0999 V2000
  -10.7700   15.6050   67.5090 C   0  0  0  0  0  0  0  0  0  0  0  0
  -10.4320   16.7360   68.1710 C   0  0  1  0  0  0  0  0  0  0  0  0
  -10.7550   16.9220   69.5250 O   0  0  0  0  0  0  0  0  0  0  0  0
  -11.5280   15.9750   70.2030 C   0  0  2  0  0  0  0  0  0  0  0  0
  -11.8290   14.7940   69.6370 C   0  0  0  0  0  0  0  0  0  0  0  0
  -11.4680   14.4740   68.2210 C   0  0  0  0  0  0  0  0  0  0  0  0
  -12.6370   13.7430   70.3430 C   0  0  0  0  0  0  0  0  0  0  0  0
  -11.8260   12.5930   70.5030 O   0  0  0  0  0  0  0  0  0  0  0  0
  -12.4720   11.5150   71.0320 C   0  0  0  0  0  0  0  0  0  0  0  0
  -12.0700   10.3770   70.8680 O   0  0  0  0  0  0  0  0  0  0  0  0
  -13.6110   11.8130   71.7070 O   0  0  0  0  0  0  0  0  0  0  0  0
  -13.6970   13.0430   72.4190 C   0  0  1  0  0  0  0  0  0  0  0  0
  -13.0120   14.1610   71.7100 C   0  0  0  0  0  0  0  0  0  0  0  0
  -12.7190   15.3810   72.2120 C   0  0  0  0  0  0  0  0  0  0  0  0
  -11.9840   16.2930   71.4650 O   0  0  0  0  0  0  0  0  0  0  0  0
  -15.0550   13.4290   72.4870 O   0  0  0  0  0  0  0  0  0  0  0  0
   -9.6900   17.8780   67.5230 C   0  0  0  0  0  0  0  0  0  0  0  0
  -10.3770   18.7030   66.6290 C   0  0  0  0  0  0  0  0  0  0  0  0
   -9.7760   19.7250   66.0160 N   0  0  0  0  0  0  0  0  0  0  0  0
  -10.4970   20.5070   65.1900 F   0  0  0  0  0  0  0  0  0  0  0  0
   -8.4970   19.9920   66.1680 N   0  0  0  0  0  0  0  0  0  0  0  0
   -7.7500   19.2410   66.9800 C   0  0  0  0  0  0  0  0  0  0  0  0
   -8.3110   18.1630   67.7090 C   0  0  0  0  0  0  0  0  0  0  0  0
   -6.3720   19.5420   67.1000 C   0  0  0  0  0  0  0  0  0  0  0  0
   -7.4530   17.4390   68.5670 C   0  0  0  0  0  0  0  0  0  0  0  0
   -6.0810   17.7020   68.6270 C   0  0  0  0  0  0  0  0  0  0  0  0
   -5.5380   18.7360   67.8940 C   0  0  0  0  0  0  0  0  0  0  0  0
   -5.2070   16.8340   69.4230 C   0  0  0  0  0  0  0  0  0  0  0  0
   -4.1850   18.9830   67.8890 O   0  0  0  0  0  0  0  0  0  0  0  0
   -3.5120   18.6410   69.1280 C   0  0  1  0  0  0  0  0  0  0  0  0
   -3.7860   17.3010   69.6830 C   0  0  0  0  0  0  0  0  0  0  0  0
   -2.1930   19.1080   69.2520 O   0  0  0  0  0  0  0  0  0  0  0  0
   -3.1950   19.7310   70.1100 C   0  0  1  0  0  0  0  0  0  0  0  0
   -3.0200   16.6670   70.3880 O   0  0  0  0  0  0  0  0  0  0  0  0
   -3.8730   20.9430   69.6120 O   0  0  0  0  0  0  0  0  0  0  0  0
   -2.7670   21.0940   70.3140 C   0  0  1  0  0  0  0  0  0  0  0  0
   -2.5500   21.7490   71.3070 O   0  0  0  0  0  0  0  0  0  0  0  0
   -5.6500   15.7780   69.8540 O   0  0  0  0  0  0  0  0  0  0  0  0
   -5.7770   20.5040   66.2530 N   0  0  0  0  0  0  0  0  0  0  0  0
  -10.5320   15.5050   66.1510 O   0  0  0  0  0  0  0  0  0  0  0  0
  -10.1930   14.2590   65.4960 C   0  0  1  0  0  0  0  0  0  0  0  0
   -9.9570   13.2010   66.4100 O   0  0  0  0  0  0  0  0  0  0  0  0
   -9.6160   12.0190   65.7810 C   0  0  0  0  0  0  0  0  0  0  0  0
   -8.5300   11.3270   66.1430 C   0  0  0  0  0  0  0  0  0  0  0  0
  -10.5040   11.5040   64.7030 C   0  0  0  0  0  0  0  0  0  0  0  0
   -7.6480   11.7710   67.0990 O   0  0  0  0  0  0  0  0  0  0  0  0
  -11.6420   12.4690   64.4030 C   0  0  0  0  0  0  0  0  0  0  0  0
  -10.3210   10.4800   64.0760 O   0  0  0  0  0  0  0  0  0  0  0  0
  -11.4110   13.9460   64.6200 C   0  0  0  0  0  0  0  0  0  0  0  0
  -12.7970   12.0120   64.0330 N   0  0  0  0  0  0  0  0  0  0  0  0
  -12.1510   14.8730   64.0780 N   0  0  0  0  0  0  0  0  0  0  0  0
  -13.1050   15.8210   73.5720 C   0  0  0  0  0  0  0  0  0  0  0  0
  -12.3240   15.4440   74.7120 O   0  0  0  0  0  0  0  0  0  0  0  0
  -12.3240   16.8130   74.2630 O   0  0  0  0  0  0  0  0  0  0  0  0
  1 40  1  0  0  0  0
  1  2  1  0  0  0  0
  1  6  2  0  0  0  0
  2 17  1  1  0  0  0
  2  3  1  0  0  0  0
  4  3  1  6  0  0  0
  4  5  1  0  0  0  0
  4 15  1  0  0  0  0
  5  6  1  0  0  0  0
  5  7  2  0  0  0  0
  7  8  1  0  0  0  0
  7 13  1  0  0  0  0
  8  9  1  0  0  0  0
  9 10  2  0  0  0  0
  9 11  1  0  0  0  0
 11 12  1  0  0  0  0
 12 13  1  0  0  0  0
 12 16  1  6  0  0  0
 13 14  2  0  0  0  0
 14 15  1  0  0  0  0
 14 52  1  0  0  0  0
 17 18  1  0  0  0  0
 17 23  2  0  0  0  0
 18 19  1  0  0  0  0
 19 20  1  0  0  0  0
 19 21  1  0  0  0  0
 21 22  2  0  0  0  0
 22 24  1  0  0  0  0
 22 23  1  0  0  0  0
 23 25  1  0  0  0  0
 24 39  1  0  0  0  0
 24 27  2  0  0  0  0
 25 26  2  0  0  0  0
 26 27  1  0  0  0  0
 26 28  1  0  0  0  0
 27 29  1  0  0  0  0
 28 31  1  0  0  0  0
 28 38  2  0  0  0  0
 30 29  1  6  0  0  0
 30 32  1  0  0  0  0
 30 31  1  0  0  0  0
 30 33  1  0  0  0  0
 31 34  2  0  0  0  0
 33 32  1  6  0  0  0
 33 35  1  0  0  0  0
 33 36  1  0  0  0  0
 35 36  1  0  0  0  0
 36 37  1  1  0  0  0
 41 40  1  1  0  0  0
 41 49  1  0  0  0  0
 41 42  1  0  0  0  0
 42 43  1  0  0  0  0
 43 45  1  0  0  0  0
 43 44  2  0  0  0  0
 44 46  1  0  0  0  0
 45 48  2  0  0  0  0
 45 47  1  0  0  0  0
 47 50  2  0  0  0  0
 47 49  1  0  0  0  0
 49 51  2  0  0  0  0
 52 54  1  0  0  0  0
 52 53  1  0  0  0  0
 53 54  1  0  0  0  0
M  END
>  <MODEL>
     570

>  <REMARK>
 VINA RESULT:     -13.0      0.000      0.000
  4 active torsions:
  status: ('A' for Active; 'I' for Inactive)
    1  A    between atoms: C_5  and  O_6 
    2  A    between atoms: O_6  and  C_7 
    3  A    between atoms: C_8  and  C_26 
    4  A    between atoms: C_20  and  C_22 

>  <COMPND>
    /Users/duckhoan/Documents/VS_Code/ViDok/Auto_download_vidok/Ligand_receptor/ZINC000085862539_1189_ligand.pdbqt 

>  <AUTHOR>
    GENERATED BY OPEN BABEL 3.1.0

>  <MASTER>
        0    0    0    0    0    0    0    0   54    0   54    0

$$$$
