/Users/duckhoan/Documents/VS_Code/ViDok/nearest_amino_acid-master/data/ligands/ZINC000085862539_523.pdb
 OpenBabel04122200353D

 52 60  0  0  1  0  0  0  0  0999 V2000
  -11.1170   15.8240   67.1930 C   0  0  0  0  0  0  0  0  0  0  0  0
  -10.5610   16.8410   67.8850 C   0  0  2  0  0  0  0  0  0  0  0  0
  -10.7290   17.0070   69.2570 O   0  0  0  0  0  0  0  0  0  0  0  0
  -11.4220   16.0540   69.9860 C   0  0  1  0  0  0  0  0  0  0  0  0
  -11.9690   14.9750   69.3980 C   0  0  0  0  0  0  0  0  0  0  0  0
  -11.9180   14.7710   67.9130 C   0  0  0  0  0  0  0  0  0  0  0  0
  -12.6740   13.9120   70.1880 C   0  0  0  0  0  0  0  0  0  0  0  0
  -11.9080   12.7250   70.0680 O   0  0  0  0  0  0  0  0  0  0  0  0
  -12.3030   11.6330   70.7760 C   0  0  0  0  0  0  0  0  0  0  0  0
  -11.8800   10.5190   70.5200 O   0  0  0  0  0  0  0  0  0  0  0  0
  -13.1890   11.8600   71.7760 O   0  0  0  0  0  0  0  0  0  0  0  0
  -13.4030   13.1380   72.3620 C   0  0  1  0  0  0  0  0  0  0  0  0
  -12.7170   14.2330   71.6320 C   0  0  0  0  0  0  0  0  0  0  0  0
  -12.1750   15.3550   72.1560 C   0  0  0  0  0  0  0  0  0  0  0  0
  -11.5180   16.2590   71.3390 O   0  0  0  0  0  0  0  0  0  0  0  0
  -14.7800   13.4460   72.2850 O   0  0  0  0  0  0  0  0  0  0  0  0
   -9.7240   17.8950   67.2810 C   0  0  0  0  0  0  0  0  0  0  0  0
  -10.4180   18.8070   66.5720 N   0  0  0  0  0  0  0  0  0  0  0  0
   -9.7080   19.8400   66.1060 C   0  0  0  0  0  0  0  0  0  0  0  0
   -8.4080   20.0650   66.3300 N   0  0  0  0  0  0  0  0  0  0  0  0
   -7.7400   19.1650   67.0570 C   0  0  0  0  0  0  0  0  0  0  0  0
   -8.3510   18.0130   67.5670 C   0  0  0  0  0  0  0  0  0  0  0  0
   -6.3950   19.3930   67.3460 C   0  0  0  0  0  0  0  0  0  0  0  0
   -7.5810   17.1050   68.3350 C   0  0  0  0  0  0  0  0  0  0  0  0
   -6.2370   17.3750   68.6220 C   0  0  0  0  0  0  0  0  0  0  0  0
   -5.6400   18.5210   68.1380 C   0  0  0  0  0  0  0  0  0  0  0  0
   -5.4770   16.4580   69.4660 C   0  0  0  0  0  0  0  0  0  0  0  0
   -4.3460   18.8780   68.3500 O   0  0  0  0  0  0  0  0  0  0  0  0
   -3.5720   18.1720   69.3180 C   0  0  2  0  0  0  0  0  0  0  0  0
   -4.1310   16.9190   69.9630 C   0  0  0  0  0  0  0  0  0  0  0  0
   -3.5820   16.3260   70.8830 O   0  0  0  0  0  0  0  0  0  0  0  0
   -5.9520   15.3910   69.8210 O   0  0  0  0  0  0  0  0  0  0  0  0
   -3.1020   19.1650   70.3520 C   0  0  1  0  0  0  0  0  0  0  0  0
   -1.7190   19.0210   70.7650 O   0  0  0  0  0  0  0  0  0  0  0  0
   -3.5420   20.5010   70.1020 O   0  0  0  0  0  0  0  0  0  0  0  0
   -3.9410   19.9400   71.2640 C   0  0  2  0  0  0  0  0  0  0  0  0
   -3.7230   20.3120   72.4020 O   0  0  0  0  0  0  0  0  0  0  0  0
  -10.9010   15.6730   65.8320 O   0  0  0  0  0  0  0  0  0  0  0  0
  -10.5540   14.3530   65.3710 C   0  0  1  0  0  0  0  0  0  0  0  0
   -9.9650   13.5900   66.4180 O   0  0  0  0  0  0  0  0  0  0  0  0
   -9.6490   12.2810   66.1080 C   0  0  0  0  0  0  0  0  0  0  0  0
   -8.6080   11.6730   66.6930 C   0  0  0  0  0  0  0  0  0  0  0  0
  -10.4610   11.4720   65.1520 C   0  0  0  0  0  0  0  0  0  0  0  0
   -7.7670   12.3060   67.5750 O   0  0  0  0  0  0  0  0  0  0  0  0
  -11.5070   12.2600   64.3950 C   0  0  0  0  0  0  0  0  0  0  0  0
  -10.2860   10.2830   64.9500 O   0  0  0  0  0  0  0  0  0  0  0  0
  -11.7910   13.6820   64.8000 C   0  0  0  0  0  0  0  0  0  0  0  0
  -12.0410   11.7930   63.4020 O   0  0  0  0  0  0  0  0  0  0  0  0
  -12.8740   14.2000   64.5940 O   0  0  0  0  0  0  0  0  0  0  0  0
  -12.2180   15.6940   73.5960 C   0  0  0  0  0  0  0  0  0  0  0  0
  -12.2210   17.0580   74.0330 O   0  0  0  0  0  0  0  0  0  0  0  0
  -13.4070   16.2530   74.1810 O   0  0  0  0  0  0  0  0  0  0  0  0
  1 38  1  0  0  0  0
  1  2  1  0  0  0  0
  1  6  2  0  0  0  0
  2 17  1  6  0  0  0
  2  3  1  0  0  0  0
  4  3  1  1  0  0  0
  4  5  1  0  0  0  0
  4 15  1  0  0  0  0
  5  6  1  0  0  0  0
  5  7  2  0  0  0  0
  7  8  1  0  0  0  0
  7 13  1  0  0  0  0
  8  9  1  0  0  0  0
  9 10  2  0  0  0  0
  9 11  1  0  0  0  0
 11 12  1  0  0  0  0
 12 13  1  0  0  0  0
 12 16  1  6  0  0  0
 13 14  2  0  0  0  0
 14 15  1  0  0  0  0
 14 50  1  0  0  0  0
 17 18  2  0  0  0  0
 17 22  1  0  0  0  0
 18 19  1  0  0  0  0
 19 20  2  0  0  0  0
 20 21  1  0  0  0  0
 21 23  2  0  0  0  0
 21 22  1  0  0  0  0
 22 24  2  0  0  0  0
 23 26  1  0  0  0  0
 24 25  1  0  0  0  0
 25 26  2  0  0  0  0
 25 27  1  0  0  0  0
 26 28  1  0  0  0  0
 27 32  2  0  0  0  0
 27 30  1  0  0  0  0
 29 28  1  1  0  0  0
 29 30  1  0  0  0  0
 29 33  1  0  0  0  0
 30 31  2  0  0  0  0
 33 35  1  0  0  0  0
 33 34  1  1  0  0  0
 33 36  1  0  0  0  0
 35 36  1  0  0  0  0
 36 37  1  1  0  0  0
 39 38  1  1  0  0  0
 39 47  1  0  0  0  0
 39 40  1  0  0  0  0
 40 41  1  0  0  0  0
 41 43  1  0  0  0  0
 41 42  2  0  0  0  0
 42 44  1  0  0  0  0
 43 45  1  0  0  0  0
 43 46  2  0  0  0  0
 45 48  2  0  0  0  0
 45 47  1  0  0  0  0
 47 49  2  0  0  0  0
 50 51  1  0  0  0  0
 50 52  1  0  0  0  0
 51 52  1  0  0  0  0
M  END
>  <MODEL>
     532

>  <REMARK>
 VINA RESULT:     -12.7      0.000      0.000
  5 active torsions:
  status: ('A' for Active; 'I' for Inactive)
    1  A    between atoms: C_5  and  O_6 
    2  A    between atoms: O_6  and  C_7 
    3  A    between atoms: C_8  and  C_26 
    4  A    between atoms: C_20  and  C_22 
    5  A    between atoms: C_37  and  C_42 

>  <COMPND>
    /Users/duckhoan/Documents/VS_Code/ViDok/Auto_download_vidok/Ligand_receptor/ZINC000085862539_523_ligand.pdbqt 

>  <AUTHOR>
    GENERATED BY OPEN BABEL 3.1.0

>  <MASTER>
        0    0    0    0    0    0    0    0   52    0   52    0

$$$$
