/Users/duckhoan/Documents/VS_Code/ViDok/nearest_amino_acid-master/data/ligands/ZINC000085862539_1031.pdb
 OpenBabel04112220473D

 52 59  0  0  1  0  0  0  0  0999 V2000
  -10.5210   15.5330   67.3010 C   0  0  0  0  0  0  0  0  0  0  0  0
  -10.6500   16.7520   67.8870 C   0  0  0  0  0  0  0  0  0  0  0  0
  -11.4810   16.9440   69.0020 O   0  0  0  0  0  0  0  0  0  0  0  0
  -12.0190   15.8630   69.6720 C   0  0  0  0  0  0  0  0  0  0  0  0
  -11.9450   14.6290   69.1600 C   0  0  0  0  0  0  0  0  0  0  0  0
  -11.2670   14.3550   67.8590 C   0  0  0  0  0  0  0  0  0  0  0  0
  -12.5370   13.4690   69.8860 C   0  0  1  0  0  0  0  0  0  0  0  0
  -11.5990   12.4020   69.9380 O   0  0  0  0  0  0  0  0  0  0  0  0
  -12.1190   11.2390   70.4090 C   0  0  0  0  0  0  0  0  0  0  0  0
  -11.6590   10.1420   70.1450 O   0  0  0  0  0  0  0  0  0  0  0  0
  -13.2180   11.4190   71.2030 O   0  0  0  0  0  0  0  0  0  0  0  0
  -13.0750   12.5180   72.0700 C   0  0  1  0  0  0  0  0  0  0  0  0
  -12.8950   13.7880   71.3110 C   0  0  0  0  0  0  0  0  0  0  0  0
  -12.9610   15.0620   71.7750 C   0  0  0  0  0  0  0  0  0  0  0  0
  -12.6080   16.1010   70.9120 N   0  0  0  0  0  0  0  0  0  0  0  0
  -14.2810   12.6900   72.8220 O   0  0  0  0  0  0  0  0  0  0  0  0
   -9.9980   18.0150   67.4150 C   0  0  0  0  0  0  0  0  0  0  0  0
  -10.7350   18.9190   66.6580 C   0  0  0  0  0  0  0  0  0  0  0  0
  -10.2690   20.1130   66.2550 N   0  0  0  0  0  0  0  0  0  0  0  0
   -9.0170   20.4930   66.6110 N   0  0  0  0  0  0  0  0  0  0  0  0
   -8.2400   19.6980   67.3480 C   0  0  0  0  0  0  0  0  0  0  0  0
   -8.6760   18.4240   67.7750 C   0  0  0  0  0  0  0  0  0  0  0  0
   -6.9780   20.1630   67.7150 C   0  0  0  0  0  0  0  0  0  0  0  0
   -7.7540   17.6610   68.5370 C   0  0  0  0  0  0  0  0  0  0  0  0
   -6.5120   18.1690   68.9320 C   0  0  0  0  0  0  0  0  0  0  0  0
   -6.1170   19.4260   68.5280 C   0  0  0  0  0  0  0  0  0  0  0  0
   -5.6490   17.3630   69.7960 C   0  0  0  0  0  0  0  0  0  0  0  0
   -4.9310   20.0110   68.8450 O   0  0  0  0  0  0  0  0  0  0  0  0
   -4.1570   19.4400   69.9090 C   0  0  2  0  0  0  0  0  0  0  0  0
   -4.3020   17.9480   70.1520 C   0  0  0  0  0  0  0  0  0  0  0  0
   -3.4460   17.2290   70.6450 O   0  0  0  0  0  0  0  0  0  0  0  0
   -6.0260   16.2830   70.2400 O   0  0  0  0  0  0  0  0  0  0  0  0
   -4.3150   20.2940   71.1410 C   0  0  1  0  0  0  0  0  0  0  0  0
   -5.6670   20.6270   71.5080 O   0  0  0  0  0  0  0  0  0  0  0  0
   -3.5000   19.9270   72.2500 O   0  0  0  0  0  0  0  0  0  0  0  0
   -3.2580   21.1360   71.7050 C   0  0  1  0  0  0  0  0  0  0  0  0
   -2.2130   21.5630   71.3000 O   0  0  0  0  0  0  0  0  0  0  0  0
   -9.6980   15.3310   66.2010 O   0  0  0  0  0  0  0  0  0  0  0  0
  -10.0160   14.3940   65.1460 C   0  0  1  0  0  0  0  0  0  0  0  0
   -9.9060   13.0760   65.6630 O   0  0  0  0  0  0  0  0  0  0  0  0
  -10.6810   12.0580   65.1390 C   0  0  0  0  0  0  0  0  0  0  0  0
  -10.3820   10.7730   65.3780 C   0  0  0  0  0  0  0  0  0  0  0  0
  -11.9180   12.3060   64.3540 C   0  0  0  0  0  0  0  0  0  0  0  0
   -9.2850   10.3800   66.1010 O   0  0  0  0  0  0  0  0  0  0  0  0
  -12.0270   13.6990   63.8070 C   0  0  0  0  0  0  0  0  0  0  0  0
  -12.7930   11.4790   64.1570 O   0  0  0  0  0  0  0  0  0  0  0  0
  -11.3500   14.8130   64.5430 C   0  0  0  0  0  0  0  0  0  0  0  0
  -12.5700   13.9170   62.7360 O   0  0  0  0  0  0  0  0  0  0  0  0
  -11.8100   15.9470   64.5390 O   0  0  0  0  0  0  0  0  0  0  0  0
  -13.3490   15.4210   73.1450 C   0  0  0  0  0  0  0  0  0  0  0  0
  -12.5000   16.3820   73.9100 N   0  0  0  0  0  0  0  0  0  0  0  0
  -12.3190   15.3380   74.2070 N   0  0  0  0  0  0  0  0  0  0  0  0
  1 38  1  0  0  0  0
  1  6  1  0  0  0  0
  1  2  2  0  0  0  0
  2 17  1  0  0  0  0
  2  3  1  0  0  0  0
  3  4  1  0  0  0  0
  4  5  1  0  0  0  0
  4 15  2  0  0  0  0
  5  6  2  0  0  0  0
  7  5  1  1  0  0  0
  7  8  1  0  0  0  0
  7 13  1  0  0  0  0
  8  9  1  0  0  0  0
  9 10  2  0  0  0  0
  9 11  1  0  0  0  0
 11 12  1  0  0  0  0
 12 13  1  0  0  0  0
 12 16  1  6  0  0  0
 13 14  2  0  0  0  0
 14 15  1  0  0  0  0
 14 50  1  0  0  0  0
 17 18  2  0  0  0  0
 17 22  1  0  0  0  0
 18 19  1  0  0  0  0
 19 20  2  0  0  0  0
 20 21  1  0  0  0  0
 21 23  2  0  0  0  0
 21 22  1  0  0  0  0
 22 24  2  0  0  0  0
 23 26  1  0  0  0  0
 24 25  1  0  0  0  0
 25 26  2  0  0  0  0
 25 27  1  0  0  0  0
 26 28  1  0  0  0  0
 27 30  1  0  0  0  0
 27 32  2  0  0  0  0
 29 28  1  6  0  0  0
 29 30  1  0  0  0  0
 29 33  1  0  0  0  0
 30 31  2  0  0  0  0
 33 34  1  1  0  0  0
 33 36  1  0  0  0  0
 33 35  1  0  0  0  0
 35 36  1  0  0  0  0
 36 37  1  6  0  0  0
 39 38  1  1  0  0  0
 39 47  1  0  0  0  0
 39 40  1  0  0  0  0
 40 41  1  0  0  0  0
 41 43  1  0  0  0  0
 41 42  2  0  0  0  0
 42 44  1  0  0  0  0
 43 45  1  0  0  0  0
 43 46  2  0  0  0  0
 45 48  2  0  0  0  0
 45 47  1  0  0  0  0
 47 49  2  0  0  0  0
 50 52  1  0  0  0  0
 51 52  1  0  0  0  0
M  END
>  <MODEL>
     516

>  <REMARK>
 VINA RESULT:     -12.5      0.000      0.000
  5 active torsions:
  status: ('A' for Active; 'I' for Inactive)
    1  A    between atoms: C_5  and  O_6 
    2  A    between atoms: O_6  and  C_7 
    3  A    between atoms: C_8  and  C_26 
    4  A    between atoms: C_20  and  C_22 
    5  A    between atoms: C_37  and  C_42 

>  <COMPND>
    /Users/duckhoan/Documents/VS_Code/ViDok/Auto_download_vidok/Ligand_receptor/ZINC000085862539_1031_ligand.pdbqt 

>  <AUTHOR>
    GENERATED BY OPEN BABEL 3.1.0

>  <MASTER>
        0    0    0    0    0    0    0    0   52    0   52    0

$$$$
