/Users/duckhoan/Documents/VS_Code/ViDok/nearest_amino_acid-master/data/ligands/ZINC000085862539_1367.pdb
 OpenBabel04122205533D

 54 62  0  0  1  0  0  0  0  0999 V2000
  -10.5620   15.6830   67.2110 C   0  0  0  0  0  0  0  0  0  0  0  0
  -10.4730   16.8520   67.8860 C   0  0  1  0  0  0  0  0  0  0  0  0
  -11.0360   17.0470   69.1500 O   0  0  0  0  0  0  0  0  0  0  0  0
  -11.6700   15.9880   69.7930 C   0  0  1  0  0  0  0  0  0  0  0  0
  -11.8230   14.7940   69.1940 C   0  0  0  0  0  0  0  0  0  0  0  0
  -11.3160   14.5270   67.8120 C   0  0  0  0  0  0  0  0  0  0  0  0
  -12.5160   13.6420   69.8630 C   0  0  0  0  0  0  0  0  0  0  0  0
  -11.6110   12.5610   69.9350 O   0  0  0  0  0  0  0  0  0  0  0  0
  -12.0640   11.4320   70.5450 C   0  0  0  0  0  0  0  0  0  0  0  0
  -11.5520   10.3490   70.3160 O   0  0  0  0  0  0  0  0  0  0  0  0
  -13.0930   11.5830   71.4180 O   0  0  0  0  0  0  0  0  0  0  0  0
  -13.4560   12.7860   71.8970 C   0  0  0  0  0  0  0  0  0  0  0  0
  -14.2750   12.9200   72.7940 O   0  0  0  0  0  0  0  0  0  0  0  0
  -12.8780   13.9620   71.2500 C   0  0  0  0  0  0  0  0  0  0  0  0
  -12.7000   15.1770   71.8190 C   0  0  0  0  0  0  0  0  0  0  0  0
  -12.1330   16.2070   71.0700 O   0  0  0  0  0  0  0  0  0  0  0  0
   -9.7530   18.0380   67.3620 C   0  0  0  0  0  0  0  0  0  0  0  0
  -10.4890   18.7870   66.5140 N   0  0  0  0  0  0  0  0  0  0  0  0
   -9.9350   19.9410   66.0940 C   0  0  0  0  0  0  0  0  0  0  0  0
  -10.6530   20.6960   65.2510 F   0  0  0  0  0  0  0  0  0  0  0  0
   -8.6770   20.3870   66.4620 C   0  0  0  0  0  0  0  0  0  0  0  0
   -7.8760   19.5930   67.3000 C   0  0  0  0  0  0  0  0  0  0  0  0
   -8.4240   18.3580   67.7390 C   0  0  0  0  0  0  0  0  0  0  0  0
   -6.5660   19.9810   67.7240 C   0  0  0  0  0  0  0  0  0  0  0  0
   -7.6230   17.5110   68.5260 C   0  0  0  0  0  0  0  0  0  0  0  0
   -6.3480   17.9020   68.9420 C   0  0  0  0  0  0  0  0  0  0  0  0
   -5.5470   16.9880   69.7580 C   0  0  0  0  0  0  0  0  0  0  0  0
   -5.8410   19.1480   68.6020 C   0  0  0  0  0  0  0  0  0  0  0  0
   -5.9550   15.8770   70.0610 O   0  0  0  0  0  0  0  0  0  0  0  0
   -4.1990   17.4910   70.2080 C   0  0  0  0  0  0  0  0  0  0  0  0
   -3.3330   16.7120   70.5760 O   0  0  0  0  0  0  0  0  0  0  0  0
   -4.0830   18.9940   70.2210 C   0  0  1  0  0  0  0  0  0  0  0  0
   -4.6310   19.6200   69.0510 O   0  0  0  0  0  0  0  0  0  0  0  0
   -6.0690   21.2810   67.4830 N   0  0  0  0  0  0  0  0  0  0  0  0
   -4.6780   19.5740   71.4750 C   0  0  1  0  0  0  0  0  0  0  0  0
   -5.7450   18.8220   72.1000 O   0  0  0  0  0  0  0  0  0  0  0  0
   -3.7450   20.1160   72.4110 O   0  0  0  0  0  0  0  0  0  0  0  0
   -4.5540   20.9800   71.7920 C   0  0  1  0  0  0  0  0  0  0  0  0
   -4.2880   21.9610   71.1120 O   0  0  0  0  0  0  0  0  0  0  0  0
   -9.9540   15.5150   65.9690 O   0  0  0  0  0  0  0  0  0  0  0  0
   -9.8640   14.1890   65.4050 C   0  0  1  0  0  0  0  0  0  0  0  0
   -9.5340   13.2480   66.4220 O   0  0  0  0  0  0  0  0  0  0  0  0
   -9.3820   11.9530   65.9730 C   0  0  0  0  0  0  0  0  0  0  0  0
   -8.3970   11.1640   66.4230 C   0  0  0  0  0  0  0  0  0  0  0  0
  -10.3520   11.3710   65.0070 C   0  0  0  0  0  0  0  0  0  0  0  0
   -7.4230   11.5870   67.2930 O   0  0  0  0  0  0  0  0  0  0  0  0
  -11.3600   12.3620   64.4680 C   0  0  0  0  0  0  0  0  0  0  0  0
  -10.3300   10.2060   64.6470 O   0  0  0  0  0  0  0  0  0  0  0  0
  -11.1710   13.8450   64.7020 C   0  0  0  0  0  0  0  0  0  0  0  0
  -12.3180   11.9620   63.8240 O   0  0  0  0  0  0  0  0  0  0  0  0
  -11.9770   14.6580   64.2750 O   0  0  0  0  0  0  0  0  0  0  0  0
  -13.0410   15.5440   73.2210 C   0  0  0  0  0  0  0  0  0  0  0  0
  -12.1730   15.1380   74.2960 O   0  0  0  0  0  0  0  0  0  0  0  0
  -12.2570   16.5250   73.9210 O   0  0  0  0  0  0  0  0  0  0  0  0
  1 40  1  0  0  0  0
  1  6  2  0  0  0  0
  1  2  1  0  0  0  0
  2 17  1  1  0  0  0
  2  3  1  0  0  0  0
  4  3  1  1  0  0  0
  4  5  1  0  0  0  0
  4 16  1  0  0  0  0
  5  6  1  0  0  0  0
  5  7  2  0  0  0  0
  7  8  1  0  0  0  0
  7 14  1  0  0  0  0
  8  9  1  0  0  0  0
  9 10  2  0  0  0  0
  9 11  1  0  0  0  0
 11 12  1  0  0  0  0
 12 14  1  0  0  0  0
 12 13  2  0  0  0  0
 14 15  2  0  0  0  0
 15 16  1  0  0  0  0
 15 52  1  0  0  0  0
 17 18  2  0  0  0  0
 17 23  1  0  0  0  0
 18 19  1  0  0  0  0
 19 20  1  0  0  0  0
 19 21  2  0  0  0  0
 21 22  1  0  0  0  0
 22 24  2  0  0  0  0
 22 23  1  0  0  0  0
 23 25  2  0  0  0  0
 24 34  1  0  0  0  0
 24 28  1  0  0  0  0
 25 26  1  0  0  0  0
 26 28  2  0  0  0  0
 26 27  1  0  0  0  0
 27 29  2  0  0  0  0
 27 30  1  0  0  0  0
 28 33  1  0  0  0  0
 30 31  2  0  0  0  0
 32 30  1  6  0  0  0
 32 33  1  0  0  0  0
 32 35  1  0  0  0  0
 35 38  1  0  0  0  0
 35 36  1  1  0  0  0
 35 37  1  0  0  0  0
 37 38  1  0  0  0  0
 38 39  1  6  0  0  0
 41 40  1  1  0  0  0
 41 49  1  0  0  0  0
 41 42  1  0  0  0  0
 42 43  1  0  0  0  0
 43 45  1  0  0  0  0
 43 44  2  0  0  0  0
 44 46  1  0  0  0  0
 45 47  1  0  0  0  0
 45 48  2  0  0  0  0
 47 50  2  0  0  0  0
 47 49  1  0  0  0  0
 49 51  2  0  0  0  0
 52 54  1  0  0  0  0
 52 53  1  0  0  0  0
 53 54  1  0  0  0  0
M  END
>  <MODEL>
      65

>  <REMARK>
 VINA RESULT:     -13.7      0.000      0.000
  5 active torsions:
  status: ('A' for Active; 'I' for Inactive)
    1  A    between atoms: C_5  and  O_6 
    2  A    between atoms: O_6  and  C_7 
    3  A    between atoms: C_8  and  C_26 
    4  A    between atoms: C_21  and  C_23 
    5  A    between atoms: C_39  and  C_44 

>  <COMPND>
    /Users/duckhoan/Documents/VS_Code/ViDok/Auto_download_vidok/Ligand_receptor/ZINC000085862539_1367_ligand.pdbqt 

>  <AUTHOR>
    GENERATED BY OPEN BABEL 3.1.0

>  <MASTER>
        0    0    0    0    0    0    0    0   54    0   54    0

$$$$
