/Users/duckhoan/Documents/VS_Code/ViDok/nearest_amino_acid-master/data/ligands/ZINC000085862539_1277.pdb
 OpenBabel04122201513D

 54 62  0  0  1  0  0  0  0  0999 V2000
  -10.5540   15.7440   67.3350 C   0  0  0  0  0  0  0  0  0  0  0  0
  -10.5070   16.9330   67.9790 C   0  0  1  0  0  0  0  0  0  0  0  0
  -10.9950   17.0980   69.2970 O   0  0  0  0  0  0  0  0  0  0  0  0
  -11.6200   16.0150   69.9660 C   0  0  2  0  0  0  0  0  0  0  0  0
  -11.7610   14.8220   69.3510 C   0  0  0  0  0  0  0  0  0  0  0  0
  -11.2000   14.5410   67.9820 C   0  0  0  0  0  0  0  0  0  0  0  0
  -12.5290   13.6760   69.9810 C   0  0  0  0  0  0  0  0  0  0  0  0
  -11.6910   12.5380   70.0370 O   0  0  0  0  0  0  0  0  0  0  0  0
  -12.2080   11.4610   70.6780 C   0  0  0  0  0  0  0  0  0  0  0  0
  -11.6880   10.3120   70.4990 N   0  0  0  0  0  0  0  0  0  0  0  0
  -13.2610   11.6260   71.5060 O   0  0  0  0  0  0  0  0  0  0  0  0
  -13.6110   12.8400   71.9630 C   0  0  0  0  0  0  0  0  0  0  0  0
  -14.4920   13.0280   72.7880 O   0  0  0  0  0  0  0  0  0  0  0  0
  -12.9210   13.9810   71.3650 C   0  0  0  0  0  0  0  0  0  0  0  0
  -12.7000   15.1630   71.9770 C   0  0  0  0  0  0  0  0  0  0  0  0
  -12.0890   16.2000   71.2670 O   0  0  0  0  0  0  0  0  0  0  0  0
   -9.8880   18.1580   67.3580 C   0  0  0  0  0  0  0  0  0  0  0  0
  -10.6190   18.8760   66.4000 C   0  0  0  0  0  0  0  0  0  0  0  0
  -10.0730   19.9360   65.7950 N   0  0  0  0  0  0  0  0  0  0  0  0
  -10.7810   20.6000   64.8560 F   0  0  0  0  0  0  0  0  0  0  0  0
   -8.8540   20.3490   66.0650 N   0  0  0  0  0  0  0  0  0  0  0  0
   -8.1280   19.7090   67.0040 C   0  0  0  0  0  0  0  0  0  0  0  0
   -8.6200   18.5960   67.6830 N   0  0  0  0  0  0  0  0  0  0  0  0
   -6.8070   20.1670   67.2890 C   0  0  0  0  0  0  0  0  0  0  0  0
   -7.8320   17.9820   68.6090 C   0  0  0  0  0  0  0  0  0  0  0  0
   -6.5340   18.4100   68.8790 C   0  0  0  0  0  0  0  0  0  0  0  0
   -5.7090   17.6220   69.7820 C   0  0  0  0  0  0  0  0  0  0  0  0
   -6.0040   19.4950   68.2280 C   0  0  0  0  0  0  0  0  0  0  0  0
   -6.2080   16.6440   70.3120 O   0  0  0  0  0  0  0  0  0  0  0  0
   -4.2510   17.9970   69.8890 C   0  0  0  0  0  0  0  0  0  0  0  0
   -3.4310   17.1580   70.2190 O   0  0  0  0  0  0  0  0  0  0  0  0
   -3.9500   19.4340   69.5190 C   0  0  1  0  0  0  0  0  0  0  0  0
   -4.7280   19.9540   68.4180 O   0  0  0  0  0  0  0  0  0  0  0  0
   -6.1850   21.1390   66.4680 N   0  0  0  0  0  0  0  0  0  0  0  0
   -4.1020   20.3160   70.7120 C   0  0  1  0  0  0  0  0  0  0  0  0
   -5.0850   21.3770   70.5970 O   0  0  0  0  0  0  0  0  0  0  0  0
   -4.0490   19.6620   71.9740 O   0  0  0  0  0  0  0  0  0  0  0  0
   -3.0430   20.5240   71.7100 C   0  0  2  0  0  0  0  0  0  0  0  0
   -2.7200   21.5510   72.2430 O   0  0  0  0  0  0  0  0  0  0  0  0
   -9.9360   15.5780   66.1000 O   0  0  0  0  0  0  0  0  0  0  0  0
   -9.5350   14.2290   65.6670 C   0  0  1  0  0  0  0  0  0  0  0  0
   -9.5410   13.3600   66.7990 O   0  0  0  0  0  0  0  0  0  0  0  0
   -9.6520   11.9990   66.5590 C   0  0  0  0  0  0  0  0  0  0  0  0
   -9.3390   11.1070   67.5080 C   0  0  0  0  0  0  0  0  0  0  0  0
  -10.1450   11.4330   65.2580 C   0  0  0  0  0  0  0  0  0  0  0  0
   -8.8680   11.4560   68.7480 O   0  0  0  0  0  0  0  0  0  0  0  0
  -10.2440   12.3890   64.1040 C   0  0  2  0  0  0  0  0  0  0  0  0
  -10.3710   10.2320   65.1350 O   0  0  0  0  0  0  0  0  0  0  0  0
  -10.5220   13.7940   64.5850 C   0  0  1  0  0  0  0  0  0  0  0  0
  -11.2160   12.0460   63.2100 F   0  0  0  0  0  0  0  0  0  0  0  0
  -11.7790   13.8740   65.1270 F   0  0  0  0  0  0  0  0  0  0  0  0
  -13.0450   15.4900   73.3940 C   0  0  0  0  0  0  0  0  0  0  0  0
  -12.1140   15.1640   74.4400 O   0  0  0  0  0  0  0  0  0  0  0  0
  -12.3460   16.5350   74.0820 O   0  0  0  0  0  0  0  0  0  0  0  0
  1 40  1  0  0  0  0
  1  2  1  0  0  0  0
  1  6  2  0  0  0  0
  2 17  1  1  0  0  0
  2  3  1  0  0  0  0
  4  3  1  6  0  0  0
  4  5  1  0  0  0  0
  4 16  1  0  0  0  0
  5  6  1  0  0  0  0
  5  7  2  0  0  0  0
  7  8  1  0  0  0  0
  7 14  1  0  0  0  0
  8  9  1  0  0  0  0
  9 10  2  0  0  0  0
  9 11  1  0  0  0  0
 11 12  1  0  0  0  0
 12 14  1  0  0  0  0
 12 13  2  0  0  0  0
 14 15  2  0  0  0  0
 15 16  1  0  0  0  0
 15 52  1  0  0  0  0
 17 18  2  0  0  0  0
 17 23  1  0  0  0  0
 18 19  1  0  0  0  0
 19 20  1  0  0  0  0
 19 21  1  0  0  0  0
 21 22  2  0  0  0  0
 22 24  1  0  0  0  0
 22 23  1  0  0  0  0
 23 25  1  0  0  0  0
 24 34  1  0  0  0  0
 24 28  2  0  0  0  0
 25 26  2  0  0  0  0
 26 28  1  0  0  0  0
 26 27  1  0  0  0  0
 27 30  1  0  0  0  0
 27 29  2  0  0  0  0
 28 33  1  0  0  0  0
 30 31  2  0  0  0  0
 32 30  1  1  0  0  0
 32 33  1  0  0  0  0
 32 35  1  0  0  0  0
 35 36  1  6  0  0  0
 35 38  1  0  0  0  0
 35 37  1  0  0  0  0
 37 38  1  0  0  0  0
 38 39  1  1  0  0  0
 41 40  1  1  0  0  0
 41 49  1  0  0  0  0
 41 42  1  0  0  0  0
 42 43  1  0  0  0  0
 43 45  1  0  0  0  0
 43 44  2  0  0  0  0
 44 46  1  0  0  0  0
 45 47  1  0  0  0  0
 45 48  2  0  0  0  0
 47 50  1  6  0  0  0
 47 49  1  0  0  0  0
 49 51  1  1  0  0  0
 52 54  1  0  0  0  0
 52 53  1  0  0  0  0
 53 54  1  0  0  0  0
M  END
>  <MODEL>
     701

>  <REMARK>
 VINA RESULT:     -13.2      0.000      0.000
  5 active torsions:
  status: ('A' for Active; 'I' for Inactive)
    1  A    between atoms: C_5  and  O_6 
    2  A    between atoms: O_6  and  C_7 
    3  A    between atoms: C_8  and  C_26 
    4  A    between atoms: C_21  and  C_23 
    5  A    between atoms: C_39  and  C_44 

>  <COMPND>
    /Users/duckhoan/Documents/VS_Code/ViDok/Auto_download_vidok/Ligand_receptor/ZINC000085862539_1277_ligand.pdbqt 

>  <AUTHOR>
    GENERATED BY OPEN BABEL 3.1.0

>  <MASTER>
        0    0    0    0    0    0    0    0   54    0   54    0

$$$$
