/Users/duckhoan/Documents/VS_Code/ViDok/nearest_amino_acid-master/data/ligands/ZINC000085862539_1396.pdb
 OpenBabel04112218443D

 54 60  0  0  1  0  0  0  0  0999 V2000
  -10.7840   15.2550   66.8780 C   0  0  0  0  0  0  0  0  0  0  0  0
  -10.5540   16.4410   67.5020 C   0  0  1  0  0  0  0  0  0  0  0  0
  -10.8940   16.6190   68.8430 O   0  0  0  0  0  0  0  0  0  0  0  0
  -11.6440   15.6910   69.5280 C   0  0  1  0  0  0  0  0  0  0  0  0
  -11.8750   14.4660   69.0370 C   0  0  0  0  0  0  0  0  0  0  0  0
  -11.4090   14.1010   67.6490 C   0  0  0  0  0  0  0  0  0  0  0  0
  -12.6250   13.4360   69.8250 C   0  0  0  0  0  0  0  0  0  0  0  0
  -11.7680   12.3430   70.0790 O   0  0  0  0  0  0  0  0  0  0  0  0
  -12.3300   11.2890   70.7350 C   0  0  0  0  0  0  0  0  0  0  0  0
  -11.8840   10.1600   70.6480 O   0  0  0  0  0  0  0  0  0  0  0  0
  -13.3510   11.6010   71.5830 O   0  0  0  0  0  0  0  0  0  0  0  0
  -13.5690   12.8610   71.9540 C   0  0  0  0  0  0  0  0  0  0  0  0
  -14.1860   13.1980   72.9650 O   0  0  0  0  0  0  0  0  0  0  0  0
  -12.9940   13.9560   71.1770 C   0  0  0  0  0  0  0  0  0  0  0  0
  -12.7920   15.2300   71.6360 C   0  0  0  0  0  0  0  0  0  0  0  0
  -12.1250   16.1130   70.7480 O   0  0  0  0  0  0  0  0  0  0  0  0
   -9.9040   17.6660   66.9530 C   0  0  0  0  0  0  0  0  0  0  0  0
  -10.7500   18.5670   66.4250 N   0  0  0  0  0  0  0  0  0  0  0  0
  -10.2250   19.7340   65.9870 C   0  0  0  0  0  0  0  0  0  0  0  0
  -11.0720   20.6230   65.4570 F   0  0  0  0  0  0  0  0  0  0  0  0
   -8.8920   20.0790   66.1200 C   0  0  0  0  0  0  0  0  0  0  0  0
   -7.9960   19.1400   66.6450 C   0  0  0  0  0  0  0  0  0  0  0  0
   -8.4940   17.8660   66.9860 C   0  0  0  0  0  0  0  0  0  0  0  0
   -6.6260   19.4360   66.8800 C   0  0  0  0  0  0  0  0  0  0  0  0
   -7.5410   16.8870   67.3370 C   0  0  0  0  0  0  0  0  0  0  0  0
   -6.1830   17.1790   67.4520 C   0  0  0  0  0  0  0  0  0  0  0  0
   -5.2410   16.0750   67.6440 C   0  0  0  0  0  0  0  0  0  0  0  0
   -5.7260   18.4770   67.3600 C   0  0  0  0  0  0  0  0  0  0  0  0
   -5.6160   14.9100   67.5150 O   0  0  0  0  0  0  0  0  0  0  0  0
   -3.8060   16.4770   67.9050 C   0  0  0  0  0  0  0  0  0  0  0  0
   -2.9060   15.6790   67.6930 O   0  0  0  0  0  0  0  0  0  0  0  0
   -3.6710   17.8840   68.4580 C   0  0  1  0  0  0  0  0  0  0  0  0
   -4.4610   18.8480   67.7210 O   0  0  0  0  0  0  0  0  0  0  0  0
   -6.1860   20.6830   66.6520 F   0  0  0  0  0  0  0  0  0  0  0  0
   -3.9860   17.8760   69.9390 C   0  0  1  0  0  0  0  0  0  0  0  0
   -4.1700   16.5830   70.5630 O   0  0  0  0  0  0  0  0  0  0  0  0
   -3.1420   18.7680   70.6830 O   0  0  0  0  0  0  0  0  0  0  0  0
   -4.5380   19.0670   70.7030 C   0  0  2  0  0  0  0  0  0  0  0  0
   -5.1810   18.7500   71.9510 O   0  0  0  0  0  0  0  0  0  0  0  0
  -10.5520   14.8660   65.5850 O   0  0  0  0  0  0  0  0  0  0  0  0
   -9.9910   13.6330   65.1170 C   0  0  1  0  0  0  0  0  0  0  0  0
   -9.5720   12.9010   66.2760 O   0  0  0  0  0  0  0  0  0  0  0  0
   -9.1150   11.6060   66.1120 C   0  0  0  0  0  0  0  0  0  0  0  0
   -8.2070   11.0830   66.9460 C   0  0  0  0  0  0  0  0  0  0  0  0
   -9.6600   10.7060   65.0600 C   0  0  0  0  0  0  0  0  0  0  0  0
   -7.6310   11.7990   67.9620 O   0  0  0  0  0  0  0  0  0  0  0  0
  -10.5050   11.4190   64.0350 C   0  0  0  0  0  0  0  0  0  0  0  0
   -9.4700    9.5040   65.0020 O   0  0  0  0  0  0  0  0  0  0  0  0
  -10.9930   12.8090   64.3230 C   0  0  0  0  0  0  0  0  0  0  0  0
  -10.7500   10.9250   62.9450 O   0  0  0  0  0  0  0  0  0  0  0  0
  -12.0750   13.2020   63.8970 O   0  0  0  0  0  0  0  0  0  0  0  0
  -13.1580   15.8190   73.0080 C   0  0  0  0  0  0  0  0  0  0  0  0
  -12.1830   16.5700   73.8990 N   0  0  0  0  0  0  0  0  0  0  0  0
  -12.3980   15.5460   74.2880 N   0  0  0  0  0  0  0  0  0  0  0  0
  1 40  1  0  0  0  0
  1  2  1  0  0  0  0
  1  6  2  0  0  0  0
  2 17  1  1  0  0  0
  2  3  1  0  0  0  0
  4  3  1  1  0  0  0
  4  5  1  0  0  0  0
  4 16  1  0  0  0  0
  5  6  1  0  0  0  0
  5  7  2  0  0  0  0
  7  8  1  0  0  0  0
  7 14  1  0  0  0  0
  8  9  1  0  0  0  0
  9 10  2  0  0  0  0
  9 11  1  0  0  0  0
 11 12  1  0  0  0  0
 12 14  1  0  0  0  0
 12 13  2  0  0  0  0
 14 15  2  0  0  0  0
 15 16  1  0  0  0  0
 17 18  2  0  0  0  0
 17 23  1  0  0  0  0
 18 19  1  0  0  0  0
 19 20  1  0  0  0  0
 19 21  2  0  0  0  0
 21 22  1  0  0  0  0
 22 24  2  0  0  0  0
 22 23  1  0  0  0  0
 23 25  2  0  0  0  0
 24 34  1  0  0  0  0
 24 28  1  0  0  0  0
 25 26  1  0  0  0  0
 26 28  2  0  0  0  0
 26 27  1  0  0  0  0
 27 29  2  0  0  0  0
 27 30  1  0  0  0  0
 28 33  1  0  0  0  0
 30 31  2  0  0  0  0
 32 30  1  6  0  0  0
 32 33  1  0  0  0  0
 32 35  1  0  0  0  0
 35 36  1  1  0  0  0
 35 37  1  0  0  0  0
 35 38  1  0  0  0  0
 37 38  1  0  0  0  0
 38 39  1  1  0  0  0
 41 40  1  1  0  0  0
 41 49  1  0  0  0  0
 41 42  1  0  0  0  0
 42 43  1  0  0  0  0
 43 45  1  0  0  0  0
 43 44  2  0  0  0  0
 44 46  1  0  0  0  0
 45 47  1  0  0  0  0
 45 48  2  0  0  0  0
 47 50  2  0  0  0  0
 47 49  1  0  0  0  0
 49 51  2  0  0  0  0
 52 54  1  0  0  0  0
 53 54  1  0  0  0  0
M  END
>  <MODEL>
     594

>  <REMARK>
 VINA RESULT:     -11.9      0.000      0.000
  5 active torsions:
  status: ('A' for Active; 'I' for Inactive)
    1  A    between atoms: C_5  and  O_6 
    2  A    between atoms: O_6  and  C_7 
    3  A    between atoms: C_8  and  C_26 
    4  A    between atoms: C_21  and  C_23 
    5  A    between atoms: C_39  and  C_44 

>  <COMPND>
    /Users/duckhoan/Documents/VS_Code/ViDok/Auto_download_vidok/Ligand_receptor/ZINC000085862539_1396_ligand.pdbqt 

>  <AUTHOR>
    GENERATED BY OPEN BABEL 3.1.0

>  <MASTER>
        0    0    0    0    0    0    0    0   54    0   54    0

$$$$
