/Users/duckhoan/Documents/VS_Code/ViDok/nearest_amino_acid-master/data/ligands/ZINC000085862539_399.pdb
 OpenBabel04122206503D

 57 66  0  0  1  0  0  0  0  0999 V2000
  -10.1500   15.9800   67.6420 C   0  0  0  0  0  0  0  0  0  0  0  0
  -10.1600   17.1090   68.3880 C   0  0  0  0  0  0  0  0  0  0  0  0
  -10.8980   17.2340   69.5650 O   0  0  0  0  0  0  0  0  0  0  0  0
  -11.4700   16.1020   70.1270 C   0  0  0  0  0  0  0  0  0  0  0  0
  -11.4720   14.9270   69.4820 C   0  0  0  0  0  0  0  0  0  0  0  0
  -10.9240   14.7690   68.1130 C   0  0  0  0  0  0  0  0  0  0  0  0
  -12.0040   13.7320   70.1910 C   0  0  0  0  0  0  0  0  0  0  0  0
  -11.9420   12.5590   69.6510 N   0  0  0  0  0  0  0  0  0  0  0  0
  -12.4160   11.4690   70.3510 C   0  0  0  0  0  0  0  0  0  0  0  0
  -12.2900   10.3620   69.8430 O   0  0  0  0  0  0  0  0  0  0  0  0
  -13.0230   11.5650   71.5880 N   0  0  0  0  0  0  0  0  0  0  0  0
  -13.1070   12.7230   72.1470 C   0  0  0  0  0  0  0  0  0  0  0  0
  -12.5870   13.9450   71.5340 C   0  0  0  0  0  0  0  0  0  0  0  0
  -12.5970   15.1800   72.0740 C   0  0  0  0  0  0  0  0  0  0  0  0
  -12.0180   16.2300   71.3760 N   0  0  0  0  0  0  0  0  0  0  0  0
   -9.3280   18.2960   68.0990 C   0  0  0  0  0  0  0  0  0  0  0  0
  -10.0150   19.2910   67.4960 N   0  0  0  0  0  0  0  0  0  0  0  0
   -9.3090   20.3790   67.1870 C   0  0  0  0  0  0  0  0  0  0  0  0
   -8.0020   20.5580   67.4070 N   0  0  0  0  0  0  0  0  0  0  0  0
   -7.3220   19.5660   68.0030 C   0  0  0  0  0  0  0  0  0  0  0  0
   -7.9500   18.3640   68.3720 C   0  0  0  0  0  0  0  0  0  0  0  0
   -5.9490   19.7180   68.2680 C   0  0  0  0  0  0  0  0  0  0  0  0
   -7.1900   17.3280   68.9670 C   0  0  0  0  0  0  0  0  0  0  0  0
   -5.8300   17.4890   69.2200 C   0  0  0  0  0  0  0  0  0  0  0  0
   -5.2000   18.6850   68.8850 C   0  0  0  0  0  0  0  0  0  0  0  0
   -3.7340   18.8960   69.2020 C   0  0  0  0  0  0  0  0  0  0  0  0
   -2.7860   18.9560   67.9670 C   0  0  2  0  0  0  0  0  0  0  0  0
   -3.4720   19.4820   66.6760 C   0  0  0  0  0  0  0  0  0  0  0  0
   -2.2010   17.5310   67.7300 C   0  0  0  0  0  0  0  0  0  0  0  0
   -1.6030   19.8680   68.2760 C   0  0  0  0  0  0  0  0  0  0  0  0
   -4.1990   20.8320   66.7790 C   0  0  0  0  0  0  0  0  0  0  0  0
   -5.2230   21.0010   67.9050 C   0  0  0  0  0  0  0  0  0  0  0  0
   -1.0730   17.4440   66.6780 C   0  0  1  0  0  0  0  0  0  0  0  0
    0.0600   18.4310   66.9910 C   0  0  0  0  0  0  0  0  0  0  0  0
   -0.4680   19.8090   67.2720 C   0  0  0  0  0  0  0  0  0  0  0  0
   -0.0230   20.8370   66.7850 O   0  0  0  0  0  0  0  0  0  0  0  0
   -1.5040   20.6030   69.2470 O   0  0  0  0  0  0  0  0  0  0  0  0
   -0.5480   16.0260   66.5890 C   0  0  1  0  0  0  0  0  0  0  0  0
    0.8350   15.8460   66.9450 O   0  0  0  0  0  0  0  0  0  0  0  0
   -1.4170   15.0320   67.1450 O   0  0  0  0  0  0  0  0  0  0  0  0
   -1.1920   14.9680   65.8230 C   0  0  1  0  0  0  0  0  0  0  0  0
   -1.9700   14.9740   64.8890 O   0  0  0  0  0  0  0  0  0  0  0  0
   -9.4000   15.8950   66.4740 O   0  0  0  0  0  0  0  0  0  0  0  0
   -9.8550   14.9990   65.4460 C   0  0  1  0  0  0  0  0  0  0  0  0
  -10.2130   13.7290   65.9940 O   0  0  0  0  0  0  0  0  0  0  0  0
  -10.5940   12.8190   65.0300 C   0  0  0  0  0  0  0  0  0  0  0  0
  -10.0930   11.5780   64.9770 C   0  0  0  0  0  0  0  0  0  0  0  0
  -11.6230   13.2170   64.0390 C   0  0  0  0  0  0  0  0  0  0  0  0
   -9.1250   11.1220   65.8320 O   0  0  0  0  0  0  0  0  0  0  0  0
  -12.0160   14.6730   64.1590 C   0  0  0  0  0  0  0  0  0  0  0  0
  -12.0860   12.4820   63.1850 O   0  0  0  0  0  0  0  0  0  0  0  0
  -11.0200   15.6600   64.7240 C   0  0  0  0  0  0  0  0  0  0  0  0
  -13.1250   15.0410   63.8070 O   0  0  0  0  0  0  0  0  0  0  0  0
  -11.1400   16.8580   64.5080 O   0  0  0  0  0  0  0  0  0  0  0  0
  -13.1890   15.5270   73.3860 C   0  0  0  0  0  0  0  0  0  0  0  0
  -12.4530   15.3640   74.6120 O   0  0  0  0  0  0  0  0  0  0  0  0
  -12.7580   16.6830   74.1210 O   0  0  0  0  0  0  0  0  0  0  0  0
  1 43  1  0  0  0  0
  1  6  1  0  0  0  0
  1  2  2  0  0  0  0
  2 16  1  0  0  0  0
  2  3  1  0  0  0  0
  3  4  1  0  0  0  0
  4  5  1  0  0  0  0
  4 15  2  0  0  0  0
  5  6  2  0  0  0  0
  5  7  1  0  0  0  0
  7  8  2  0  0  0  0
  7 13  1  0  0  0  0
  8  9  1  0  0  0  0
  9 10  2  0  0  0  0
  9 11  1  0  0  0  0
 11 12  2  0  0  0  0
 12 13  1  0  0  0  0
 13 14  2  0  0  0  0
 14 15  1  0  0  0  0
 14 55  1  0  0  0  0
 16 17  2  0  0  0  0
 16 21  1  0  0  0  0
 17 18  1  0  0  0  0
 18 19  2  0  0  0  0
 19 20  1  0  0  0  0
 20 22  2  0  0  0  0
 20 21  1  0  0  0  0
 21 23  2  0  0  0  0
 22 32  1  0  0  0  0
 22 25  1  0  0  0  0
 23 24  1  0  0  0  0
 24 25  2  0  0  0  0
 25 26  1  0  0  0  0
 27 26  1  1  0  0  0
 27 28  1  0  0  0  0
 27 29  1  0  0  0  0
 27 30  1  0  0  0  0
 28 31  1  0  0  0  0
 30 35  1  0  0  0  0
 30 37  2  0  0  0  0
 31 32  1  0  0  0  0
 33 29  1  1  0  0  0
 33 38  1  0  0  0  0
 33 34  1  0  0  0  0
 34 35  1  0  0  0  0
 35 36  2  0  0  0  0
 38 41  1  0  0  0  0
 38 39  1  1  0  0  0
 38 40  1  0  0  0  0
 40 41  1  0  0  0  0
 41 42  1  6  0  0  0
 44 43  1  1  0  0  0
 44 52  1  0  0  0  0
 44 45  1  0  0  0  0
 45 46  1  0  0  0  0
 46 48  1  0  0  0  0
 46 47  2  0  0  0  0
 47 49  1  0  0  0  0
 48 51  2  0  0  0  0
 48 50  1  0  0  0  0
 50 53  2  0  0  0  0
 50 52  1  0  0  0  0
 52 54  2  0  0  0  0
 55 57  1  0  0  0  0
 55 56  1  0  0  0  0
 56 57  1  0  0  0  0
M  END
>  <MODEL>
     292

>  <REMARK>
 VINA RESULT:     -12.4      0.000      0.000
  5 active torsions:
  status: ('A' for Active; 'I' for Inactive)
    1  A    between atoms: C_5  and  O_6 
    2  A    between atoms: O_6  and  C_7 
    3  A    between atoms: C_8  and  C_25 
    4  A    between atoms: C_20  and  C_22 
    5  A    between atoms: C_41  and  C_47 

>  <COMPND>
    /Users/duckhoan/Documents/VS_Code/ViDok/Auto_download_vidok/Ligand_receptor/ZINC000085862539_399_ligand.pdbqt 

>  <AUTHOR>
    GENERATED BY OPEN BABEL 3.1.0

>  <MASTER>
        0    0    0    0    0    0    0    0   57    0   57    0

$$$$
