/Users/duckhoan/Documents/VS_Code/ViDok/nearest_amino_acid-master/data/ligands/ZINC000100828829_32.pdb
 OpenBabel04112223313D

 49 58  0  0  1  0  0  0  0  0999 V2000
  -10.9460    9.1640   69.7880 C   0  0  0  0  0  0  0  0  0  0  0  0
  -11.4530    9.6580   71.0050 C   0  0  0  0  0  0  0  0  0  0  0  0
  -11.9770   10.9540   71.1440 C   0  0  0  0  0  0  0  0  0  0  0  0
  -12.0000   11.8700   70.0820 C   0  0  0  0  0  0  0  0  0  0  0  0
  -11.5000   11.4150   68.8310 C   0  0  0  0  0  0  0  0  0  0  0  0
  -11.0120   10.0730   68.7040 C   0  0  0  0  0  0  0  0  0  0  0  0
  -10.5830    9.7100   67.3270 C   0  0  0  0  0  0  0  0  0  0  0  0
  -10.8560    8.6280   66.8160 O   0  0  0  0  0  0  0  0  0  0  0  0
   -9.8270   10.8090   66.5630 C   0  0  1  0  0  0  0  0  0  0  0  0
  -10.8250   11.9580   66.4250 C   0  0  1  0  0  0  0  0  0  0  0  0
  -11.4640   12.3270   67.7480 C   0  0  0  0  0  0  0  0  0  0  0  0
  -11.9490   13.6190   67.8940 C   0  0  0  0  0  0  0  0  0  0  0  0
  -12.4660   14.0330   69.1110 C   0  0  0  0  0  0  0  0  0  0  0  0
  -12.4770   13.2110   70.2560 C   0  0  0  0  0  0  0  0  0  0  0  0
  -11.8930   14.5780   66.9300 O   0  0  0  0  0  0  0  0  0  0  0  0
  -11.0890   14.3410   65.7690 C   0  0  2  0  0  0  0  0  0  0  0  0
  -10.0990   13.1760   65.8620 C   0  0  1  0  0  0  0  0  0  0  0  0
   -8.8950   13.4660   66.7280 C   0  0  0  0  0  0  0  0  0  0  0  0
   -8.2260   12.4050   67.3490 C   0  0  0  0  0  0  0  0  0  0  0  0
   -8.6320   11.1020   67.2900 O   0  0  0  0  0  0  0  0  0  0  0  0
   -7.1220   12.6540   68.1560 C   0  0  0  0  0  0  0  0  0  0  0  0
   -6.7070   13.9620   68.3830 C   0  0  0  0  0  0  0  0  0  0  0  0
   -7.3980   15.0390   67.8130 C   0  0  0  0  0  0  0  0  0  0  0  0
   -8.4890   14.8000   66.9580 C   0  0  0  0  0  0  0  0  0  0  0  0
   -9.1580   15.9120   66.4140 C   0  0  0  0  0  0  0  0  0  0  0  0
  -10.3390   15.6680   65.5520 C   0  0  0  0  0  0  0  0  0  0  0  0
  -10.7190   16.5170   64.7450 O   0  0  0  0  0  0  0  0  0  0  0  0
   -8.7810   17.2300   66.7300 C   0  0  0  0  0  0  0  0  0  0  0  0
   -7.7180   17.4620   67.6060 C   0  0  0  0  0  0  0  0  0  0  0  0
   -7.0440   16.3560   68.1360 C   0  0  0  0  0  0  0  0  0  0  0  0
  -11.9580   14.1040   64.6600 O   0  0  0  0  0  0  0  0  0  0  0  0
   -9.4700   10.3410   65.2640 O   0  0  0  0  0  0  0  0  0  0  0  0
  -10.3560    7.7840   69.7560 C   0  0  0  0  0  0  0  0  0  0  0  0
  -11.1360    6.6120   69.6660 C   0  0  0  0  0  0  0  0  0  0  0  0
  -10.5670    5.3280   69.6460 C   0  0  0  0  0  0  0  0  0  0  0  0
   -9.1880    5.1780   69.6510 C   0  0  0  0  0  0  0  0  0  0  0  0
   -8.3950    6.3120   69.6930 C   0  0  0  0  0  0  0  0  0  0  0  0
   -7.0620    6.1840   69.6640 F   0  0  0  0  0  0  0  0  0  0  0  0
   -8.9580    7.5890   69.7610 C   0  0  0  0  0  0  0  0  0  0  0  0
  -12.9230   13.8030   71.6940 C   0  0  0  0  0  0  0  0  0  0  0  0
  -14.3710   14.8380   71.5720 C   0  0  0  0  0  0  0  0  0  0  0  0
  -13.3720   15.5010   71.8980 C   0  0  0  0  0  0  0  0  0  0  0  0
  -12.1400   15.3660   72.1160 C   0  0  0  0  0  0  0  0  0  0  0  0
   -7.4240   19.1070   68.2660 S   0  0  0  0  0  0  0  0  0  0  0  0
   -7.7770   20.2110   66.8830 C   0  0  0  0  0  0  0  0  0  0  0  0
   -6.9360   20.0020   65.6360 C   0  0  0  0  0  0  0  0  0  0  0  0
   -5.4370   20.1210   65.8870 C   0  0  0  0  0  0  0  0  0  0  0  0
   -4.9520   19.1040   66.9090 C   0  0  0  0  0  0  0  0  0  0  0  0
   -5.6220   19.2800   68.2630 C   0  0  0  0  0  0  0  0  0  0  0  0
  1  6  2  0  0  0  0
  1 33  1  0  0  0  0
  1  2  1  0  0  0  0
  2  3  2  0  0  0  0
  3  4  1  0  0  0  0
  4  5  2  0  0  0  0
  4 14  1  0  0  0  0
  5 11  1  0  0  0  0
  5  6  1  0  0  0  0
  6  7  1  0  0  0  0
  7  9  1  0  0  0  0
  7  8  2  0  0  0  0
  9 32  1  6  0  0  0
  9 10  1  0  0  0  0
  9 20  1  0  0  0  0
 10 17  1  0  0  0  0
 10 11  1  1  0  0  0
 11 12  2  0  0  0  0
 12 15  1  0  0  0  0
 12 13  1  0  0  0  0
 13 14  2  0  0  0  0
 14 40  1  0  0  0  0
 15 16  1  0  0  0  0
 16 31  1  6  0  0  0
 16 26  1  0  0  0  0
 16 17  1  0  0  0  0
 17 18  1  1  0  0  0
 18 24  2  0  0  0  0
 18 19  1  0  0  0  0
 19 20  1  0  0  0  0
 19 21  2  0  0  0  0
 21 22  1  0  0  0  0
 22 23  2  0  0  0  0
 23 24  1  0  0  0  0
 23 30  1  0  0  0  0
 24 25  1  0  0  0  0
 25 26  1  0  0  0  0
 25 28  2  0  0  0  0
 26 27  2  0  0  0  0
 28 29  1  0  0  0  0
 29 30  2  0  0  0  0
 29 44  1  0  0  0  0
 33 34  2  0  0  0  0
 33 39  1  0  0  0  0
 34 35  1  0  0  0  0
 35 36  2  0  0  0  0
 36 37  1  0  0  0  0
 37 38  1  0  0  0  0
 37 39  2  0  0  0  0
 40 42  1  0  0  0  0
 41 42  1  0  0  0  0
 42 43  1  0  0  0  0
 44 45  1  0  0  0  0
 44 49  1  0  0  0  0
 45 46  1  0  0  0  0
 46 47  1  0  0  0  0
 47 48  1  0  0  0  0
 48 49  1  0  0  0  0
M  END
>  <MODEL>
     321

>  <REMARK>
 VINA RESULT:     -12.0      0.000      0.000
  3 active torsions:
  status: ('A' for Active; 'I' for Inactive)
    1  A    between atoms: C_6  and  C_8 
    2  A    between atoms: C_21  and  C_22 
    3  A    between atoms: C_40  and  S_42 

>  <COMPND>
    /Users/duckhoan/Documents/VS_Code/ViDok/Auto_download_vidok/Ligand_receptor/ZINC000100828829_32_ligand.pdbqt 

>  <AUTHOR>
    GENERATED BY OPEN BABEL 3.1.0

>  <MASTER>
        0    0    0    0    0    0    0    0   49    0   49    0

$$$$
