/Users/duckhoan/Documents/VS_Code/ViDok/nearest_amino_acid-master/data/ligands/ZINC000085862539_708.pdb
 OpenBabel04122201103D

 54 62  0  0  1  0  0  0  0  0999 V2000
  -11.2270   15.9510   67.2210 C   0  0  0  0  0  0  0  0  0  0  0  0
  -10.6680   16.9510   67.9540 C   0  0  2  0  0  0  0  0  0  0  0  0
  -10.8860   17.0380   69.3340 O   0  0  0  0  0  0  0  0  0  0  0  0
  -11.5840   16.0690   70.0350 C   0  0  1  0  0  0  0  0  0  0  0  0
  -12.0700   14.9870   69.4110 C   0  0  0  0  0  0  0  0  0  0  0  0
  -12.0170   14.8570   67.9200 C   0  0  0  0  0  0  0  0  0  0  0  0
  -12.6940   13.8460   70.1680 C   0  0  0  0  0  0  0  0  0  0  0  0
  -11.8210   12.7380   70.0080 O   0  0  0  0  0  0  0  0  0  0  0  0
  -12.0690   11.6040   70.7170 C   0  0  0  0  0  0  0  0  0  0  0  0
  -11.4890   10.5600   70.4640 O   0  0  0  0  0  0  0  0  0  0  0  0
  -12.9860   11.7080   71.7070 O   0  0  0  0  0  0  0  0  0  0  0  0
  -13.3310   12.9410   72.3250 C   0  0  1  0  0  0  0  0  0  0  0  0
  -12.7550   14.1170   71.6230 C   0  0  0  0  0  0  0  0  0  0  0  0
  -12.3080   15.2650   72.1820 C   0  0  0  0  0  0  0  0  0  0  0  0
  -11.7310   16.2470   71.3930 O   0  0  0  0  0  0  0  0  0  0  0  0
  -14.7310   13.1160   72.2460 O   0  0  0  0  0  0  0  0  0  0  0  0
   -9.7950   18.0650   67.4260 C   0  0  0  0  0  0  0  0  0  0  0  0
  -10.2720   18.8590   66.3850 C   0  0  0  0  0  0  0  0  0  0  0  0
   -9.5780   19.9120   65.9460 N   0  0  0  0  0  0  0  0  0  0  0  0
  -10.0780   20.6590   64.9420 F   0  0  0  0  0  0  0  0  0  0  0  0
   -8.4140   20.2570   66.4490 N   0  0  0  0  0  0  0  0  0  0  0  0
   -7.8120   19.4890   67.3570 C   0  0  0  0  0  0  0  0  0  0  0  0
   -8.4610   18.3380   67.8620 C   0  0  0  0  0  0  0  0  0  0  0  0
   -6.5010   19.8100   67.7890 C   0  0  0  0  0  0  0  0  0  0  0  0
   -7.7070   17.5230   68.7410 C   0  0  0  0  0  0  0  0  0  0  0  0
   -6.3790   17.8000   69.0750 C   0  0  0  0  0  0  0  0  0  0  0  0
   -5.6260   16.8180   69.8590 C   0  0  0  0  0  0  0  0  0  0  0  0
   -5.7750   18.9600   68.6410 C   0  0  0  0  0  0  0  0  0  0  0  0
   -6.1090   15.7160   70.0820 O   0  0  0  0  0  0  0  0  0  0  0  0
   -4.2480   17.2310   70.3160 C   0  0  0  0  0  0  0  0  0  0  0  0
   -3.4800   16.3940   70.7630 O   0  0  0  0  0  0  0  0  0  0  0  0
   -3.9760   18.7180   70.2140 C   0  0  1  0  0  0  0  0  0  0  0  0
   -4.5090   19.3180   69.0140 O   0  0  0  0  0  0  0  0  0  0  0  0
   -5.7380   21.3430   67.2080 S   0  0  0  0  0  0  0  0  0  0  0  0
   -4.3970   19.4410   71.4720 C   0  0  1  0  0  0  0  0  0  0  0  0
   -5.4170   18.7970   72.2570 O   0  0  0  0  0  0  0  0  0  0  0  0
   -3.3380   20.0650   72.2160 O   0  0  0  0  0  0  0  0  0  0  0  0
   -4.2600   20.8670   71.6860 C   0  0  1  0  0  0  0  0  0  0  0  0
   -4.2020   21.8120   70.9100 O   0  0  0  0  0  0  0  0  0  0  0  0
  -11.0630   15.8400   65.8320 O   0  0  0  0  0  0  0  0  0  0  0  0
  -10.8680   14.5030   65.2900 C   0  0  1  0  0  0  0  0  0  0  0  0
  -10.6380   13.5750   66.3500 O   0  0  0  0  0  0  0  0  0  0  0  0
  -10.2090   12.3400   65.8890 C   0  0  0  0  0  0  0  0  0  0  0  0
   -9.2320   11.6580   66.4990 C   0  0  0  0  0  0  0  0  0  0  0  0
  -10.7910   11.7510   64.6530 C   0  0  0  0  0  0  0  0  0  0  0  0
   -8.5320   12.1370   67.5770 O   0  0  0  0  0  0  0  0  0  0  0  0
  -11.9730   12.5350   64.1210 C   0  0  0  0  0  0  0  0  0  0  0  0
  -10.3080   10.8080   64.0530 O   0  0  0  0  0  0  0  0  0  0  0  0
  -12.0240   14.0310   64.4010 C   0  0  0  0  0  0  0  0  0  0  0  0
  -12.8520   11.9780   63.4880 O   0  0  0  0  0  0  0  0  0  0  0  0
  -12.8490   14.7680   63.8810 O   0  0  0  0  0  0  0  0  0  0  0  0
  -12.3400   15.5530   73.6330 C   0  0  0  0  0  0  0  0  0  0  0  0
  -12.1960   16.8940   74.1160 O   0  0  0  0  0  0  0  0  0  0  0  0
  -13.4730   16.2330   74.2050 O   0  0  0  0  0  0  0  0  0  0  0  0
  1 40  1  0  0  0  0
  1  6  2  0  0  0  0
  1  2  1  0  0  0  0
  2 17  1  6  0  0  0
  2  3  1  0  0  0  0
  4  3  1  1  0  0  0
  4  5  1  0  0  0  0
  4 15  1  0  0  0  0
  5  6  1  0  0  0  0
  5  7  2  0  0  0  0
  7  8  1  0  0  0  0
  7 13  1  0  0  0  0
  8  9  1  0  0  0  0
  9 10  2  0  0  0  0
  9 11  1  0  0  0  0
 11 12  1  0  0  0  0
 12 13  1  0  0  0  0
 12 16  1  6  0  0  0
 13 14  2  0  0  0  0
 14 15  1  0  0  0  0
 14 52  1  0  0  0  0
 17 18  1  0  0  0  0
 17 23  2  0  0  0  0
 18 19  1  0  0  0  0
 19 20  1  0  0  0  0
 19 21  1  0  0  0  0
 21 22  2  0  0  0  0
 22 24  1  0  0  0  0
 22 23  1  0  0  0  0
 23 25  1  0  0  0  0
 24 34  1  0  0  0  0
 24 28  2  0  0  0  0
 25 26  2  0  0  0  0
 26 28  1  0  0  0  0
 26 27  1  0  0  0  0
 27 29  2  0  0  0  0
 27 30  1  0  0  0  0
 28 33  1  0  0  0  0
 30 31  2  0  0  0  0
 32 30  1  1  0  0  0
 32 33  1  0  0  0  0
 32 35  1  0  0  0  0
 35 38  1  0  0  0  0
 35 37  1  0  0  0  0
 35 36  1  1  0  0  0
 37 38  1  0  0  0  0
 38 39  1  6  0  0  0
 41 40  1  1  0  0  0
 41 49  1  0  0  0  0
 41 42  1  0  0  0  0
 42 43  1  0  0  0  0
 43 45  1  0  0  0  0
 43 44  2  0  0  0  0
 44 46  1  0  0  0  0
 45 48  2  0  0  0  0
 45 47  1  0  0  0  0
 47 50  2  0  0  0  0
 47 49  1  0  0  0  0
 49 51  2  0  0  0  0
 52 53  1  0  0  0  0
 52 54  1  0  0  0  0
 53 54  1  0  0  0  0
M  END
>  <MODEL>
     391

>  <REMARK>
 VINA RESULT:     -13.7      0.000      0.000
  5 active torsions:
  status: ('A' for Active; 'I' for Inactive)
    1  A    between atoms: C_5  and  O_6 
    2  A    between atoms: O_6  and  C_7 
    3  A    between atoms: C_8  and  C_26 
    4  A    between atoms: C_20  and  C_22 
    5  A    between atoms: C_39  and  C_44 

>  <COMPND>
    /Users/duckhoan/Documents/VS_Code/ViDok/Auto_download_vidok/Ligand_receptor/ZINC000085862539_708_ligand.pdbqt 

>  <AUTHOR>
    GENERATED BY OPEN BABEL 3.1.0

>  <MASTER>
        0    0    0    0    0    0    0    0   54    0   54    0

$$$$
