/Users/duckhoan/Documents/VS_Code/ViDok/nearest_amino_acid-master/data/ligands/ZINC000085862539_1374.pdb
 OpenBabel04122204223D

 54 60  0  0  1  0  0  0  0  0999 V2000
  -10.6990   15.5430   67.2040 C   0  0  0  0  0  0  0  0  0  0  0  0
  -10.4580   16.7110   67.8580 C   0  0  1  0  0  0  0  0  0  0  0  0
  -10.8640   16.8810   69.1950 O   0  0  0  0  0  0  0  0  0  0  0  0
  -11.6260   15.9060   69.8430 C   0  0  1  0  0  0  0  0  0  0  0  0
  -11.7340   14.6750   69.3260 C   0  0  0  0  0  0  0  0  0  0  0  0
  -11.1620   14.3230   67.9740 C   0  0  0  0  0  0  0  0  0  0  0  0
  -12.4730   13.5920   70.0280 C   0  0  0  0  0  0  0  0  0  0  0  0
  -11.6180   12.4720   70.1430 O   0  0  0  0  0  0  0  0  0  0  0  0
  -12.2590   11.3400   70.5740 C   0  0  0  0  0  0  0  0  0  0  0  0
  -11.8450   10.2260   70.3810 O   0  0  0  0  0  0  0  0  0  0  0  0
  -13.3910   11.6330   71.2890 O   0  0  0  0  0  0  0  0  0  0  0  0
  -13.1810   12.7030   72.1670 C   0  0  1  0  0  0  0  0  0  0  0  0
  -12.8520   13.9790   71.4400 C   0  0  0  0  0  0  0  0  0  0  0  0
  -12.8140   15.2660   71.9040 C   0  0  0  0  0  0  0  0  0  0  0  0
  -12.2410   16.2560   71.0440 O   0  0  0  0  0  0  0  0  0  0  0  0
  -14.3750   12.9820   72.8950 O   0  0  0  0  0  0  0  0  0  0  0  0
   -9.7290   17.8990   67.2600 C   0  0  0  0  0  0  0  0  0  0  0  0
  -10.4100   18.7130   66.3450 C   0  0  0  0  0  0  0  0  0  0  0  0
   -9.8310   19.7830   65.7870 N   0  0  0  0  0  0  0  0  0  0  0  0
  -10.5510   20.5580   64.9510 F   0  0  0  0  0  0  0  0  0  0  0  0
   -8.5840   20.1220   66.0330 N   0  0  0  0  0  0  0  0  0  0  0  0
   -7.8450   19.3900   66.8640 C   0  0  0  0  0  0  0  0  0  0  0  0
   -8.3640   18.2390   67.5010 C   0  0  0  0  0  0  0  0  0  0  0  0
   -6.5300   19.7990   67.1300 C   0  0  0  0  0  0  0  0  0  0  0  0
   -7.4760   17.5290   68.3440 C   0  0  0  0  0  0  0  0  0  0  0  0
   -6.1610   17.9540   68.5730 C   0  0  0  0  0  0  0  0  0  0  0  0
   -5.2920   17.1620   69.4460 C   0  0  0  0  0  0  0  0  0  0  0  0
   -5.6890   19.1170   68.0070 C   0  0  0  0  0  0  0  0  0  0  0  0
   -5.6270   16.0170   69.7400 O   0  0  0  0  0  0  0  0  0  0  0  0
   -4.0070   17.8240   69.9090 C   0  0  0  0  0  0  0  0  0  0  0  0
   -3.1920   17.1640   70.5360 O   0  0  0  0  0  0  0  0  0  0  0  0
   -3.9140   19.3060   69.5790 C   0  0  1  0  0  0  0  0  0  0  0  0
   -4.4550   19.6320   68.2790 O   0  0  0  0  0  0  0  0  0  0  0  0
   -6.0800   20.9210   66.5490 F   0  0  0  0  0  0  0  0  0  0  0  0
   -4.5840   20.1320   70.6450 C   0  0  1  0  0  0  0  0  0  0  0  0
   -5.8410   20.7600   70.2950 O   0  0  0  0  0  0  0  0  0  0  0  0
   -4.5350   19.5820   71.9570 O   0  0  0  0  0  0  0  0  0  0  0  0
   -3.8210   20.8120   71.7690 C   0  0  2  0  0  0  0  0  0  0  0  0
   -4.4870   21.9900   72.2700 O   0  0  0  0  0  0  0  0  0  0  0  0
  -10.4870   15.4120   65.8380 O   0  0  0  0  0  0  0  0  0  0  0  0
  -10.3430   14.0990   65.2260 C   0  0  1  0  0  0  0  0  0  0  0  0
   -9.5930   13.2160   66.0650 O   0  0  0  0  0  0  0  0  0  0  0  0
   -9.3740   11.9220   65.5870 C   0  0  0  0  0  0  0  0  0  0  0  0
   -8.3290   11.1860   65.9950 C   0  0  0  0  0  0  0  0  0  0  0  0
  -10.3280   11.2310   64.6640 C   0  0  0  0  0  0  0  0  0  0  0  0
   -7.3590   11.6490   66.8450 O   0  0  0  0  0  0  0  0  0  0  0  0
  -11.3600   12.1440   64.0490 C   0  0  0  0  0  0  0  0  0  0  0  0
  -10.3590   10.0310   64.4640 O   0  0  0  0  0  0  0  0  0  0  0  0
  -11.6350   13.4420   64.7310 C   0  0  0  0  0  0  0  0  0  0  0  0
  -11.9720   11.8790   63.0320 O   0  0  0  0  0  0  0  0  0  0  0  0
  -12.7820   13.8260   64.9320 O   0  0  0  0  0  0  0  0  0  0  0  0
  -13.2840   15.7020   73.3020 C   0  0  0  0  0  0  0  0  0  0  0  0
  -12.5050   16.5940   74.2680 N   0  0  0  0  0  0  0  0  0  0  0  0
  -12.4460   15.5020   74.5040 N   0  0  0  0  0  0  0  0  0  0  0  0
  1 40  1  0  0  0  0
  1  2  1  0  0  0  0
  1  6  2  0  0  0  0
  2 17  1  1  0  0  0
  2  3  1  0  0  0  0
  4  3  1  1  0  0  0
  4  5  1  0  0  0  0
  4 15  1  0  0  0  0
  5  6  1  0  0  0  0
  5  7  2  0  0  0  0
  7  8  1  0  0  0  0
  7 13  1  0  0  0  0
  8  9  1  0  0  0  0
  9 10  2  0  0  0  0
  9 11  1  0  0  0  0
 11 12  1  0  0  0  0
 12 13  1  0  0  0  0
 12 16  1  6  0  0  0
 13 14  2  0  0  0  0
 14 15  1  0  0  0  0
 17 18  1  0  0  0  0
 17 23  2  0  0  0  0
 18 19  1  0  0  0  0
 19 20  1  0  0  0  0
 19 21  1  0  0  0  0
 21 22  2  0  0  0  0
 22 24  1  0  0  0  0
 22 23  1  0  0  0  0
 23 25  1  0  0  0  0
 24 34  1  0  0  0  0
 24 28  2  0  0  0  0
 25 26  2  0  0  0  0
 26 28  1  0  0  0  0
 26 27  1  0  0  0  0
 27 29  2  0  0  0  0
 27 30  1  0  0  0  0
 28 33  1  0  0  0  0
 30 31  2  0  0  0  0
 32 30  1  1  0  0  0
 32 33  1  0  0  0  0
 32 35  1  0  0  0  0
 35 36  1  6  0  0  0
 35 38  1  0  0  0  0
 35 37  1  0  0  0  0
 37 38  1  0  0  0  0
 38 39  1  1  0  0  0
 41 40  1  1  0  0  0
 41 49  1  0  0  0  0
 41 42  1  0  0  0  0
 42 43  1  0  0  0  0
 43 45  1  0  0  0  0
 43 44  2  0  0  0  0
 44 46  1  0  0  0  0
 45 47  1  0  0  0  0
 45 48  2  0  0  0  0
 47 50  2  0  0  0  0
 47 49  1  0  0  0  0
 49 51  2  0  0  0  0
 52 54  1  0  0  0  0
 53 54  1  0  0  0  0
M  END
>  <MODEL>
     176

>  <REMARK>
 VINA RESULT:     -13.4      0.000      0.000
  5 active torsions:
  status: ('A' for Active; 'I' for Inactive)
    1  A    between atoms: C_5  and  O_6 
    2  A    between atoms: O_6  and  C_7 
    3  A    between atoms: C_8  and  C_26 
    4  A    between atoms: C_20  and  C_22 
    5  A    between atoms: C_39  and  C_44 

>  <COMPND>
    /Users/duckhoan/Documents/VS_Code/ViDok/Auto_download_vidok/Ligand_receptor/ZINC000085862539_1374_ligand.pdbqt 

>  <AUTHOR>
    GENERATED BY OPEN BABEL 3.1.0

>  <MASTER>
        0    0    0    0    0    0    0    0   54    0   54    0

$$$$
