/Users/duckhoan/Documents/VS_Code/ViDok/nearest_amino_acid-master/data/ligands/ZINC000085862539_1025.pdb
 OpenBabel04112220463D

 53 61  0  0  1  0  0  0  0  0999 V2000
  -10.1070   15.3780   67.6210 C   0  0  0  0  0  0  0  0  0  0  0  0
  -10.2620   16.6220   68.1290 C   0  0  0  0  0  0  0  0  0  0  0  0
  -11.0050   16.8950   69.2710 O   0  0  0  0  0  0  0  0  0  0  0  0
  -11.5760   15.8450   69.9790 C   0  0  0  0  0  0  0  0  0  0  0  0
  -11.5110   14.5820   69.5340 C   0  0  0  0  0  0  0  0  0  0  0  0
  -10.8040   14.2020   68.2810 C   0  0  0  0  0  0  0  0  0  0  0  0
  -12.1390   13.5130   70.3600 C   0  0  0  0  0  0  0  0  0  0  0  0
  -12.1570   12.2870   69.9440 N   0  0  0  0  0  0  0  0  0  0  0  0
  -12.7570   11.3700   70.7560 C   0  0  0  0  0  0  0  0  0  0  0  0
  -12.8300   10.1920   70.2560 N   0  0  0  0  0  0  0  0  0  0  0  0
  -13.2770   11.5690   71.9990 N   0  0  0  0  0  0  0  0  0  0  0  0
  -13.2650   12.7790   72.4430 C   0  0  0  0  0  0  0  0  0  0  0  0
  -12.7280   13.9080   71.6690 C   0  0  0  0  0  0  0  0  0  0  0  0
  -12.7330   15.2070   72.0320 C   0  0  1  0  0  0  0  0  0  0  0  0
  -12.1990   16.1530   71.1560 N   0  0  0  0  0  0  0  0  0  0  0  0
   -9.6740   17.8280   67.5220 C   0  0  0  0  0  0  0  0  0  0  0  0
  -10.4620   18.5720   66.6510 C   0  0  0  0  0  0  0  0  0  0  0  0
   -9.9680   19.6580   66.0500 N   0  0  0  0  0  0  0  0  0  0  0  0
  -10.7310   20.3210   65.1610 F   0  0  0  0  0  0  0  0  0  0  0  0
   -8.7470   20.1040   66.2790 N   0  0  0  0  0  0  0  0  0  0  0  0
   -7.9520   19.4520   67.1340 C   0  0  0  0  0  0  0  0  0  0  0  0
   -8.3650   18.2770   67.7870 C   0  0  0  0  0  0  0  0  0  0  0  0
   -6.6740   19.9490   67.3960 C   0  0  0  0  0  0  0  0  0  0  0  0
   -7.4570   17.6290   68.6610 C   0  0  0  0  0  0  0  0  0  0  0  0
   -6.1810   18.1600   68.8980 C   0  0  0  0  0  0  0  0  0  0  0  0
   -5.2440   17.4770   69.7940 C   0  0  0  0  0  0  0  0  0  0  0  0
   -5.7940   19.3440   68.2950 C   0  0  0  0  0  0  0  0  0  0  0  0
   -5.5260   16.4040   70.3000 O   0  0  0  0  0  0  0  0  0  0  0  0
   -3.9150   18.1570   70.0310 C   0  0  0  0  0  0  0  0  0  0  0  0
   -2.9450   17.5150   70.4010 O   0  0  0  0  0  0  0  0  0  0  0  0
   -3.9260   19.6440   69.7700 C   0  0  1  0  0  0  0  0  0  0  0  0
   -4.6190   19.9950   68.5550 O   0  0  0  0  0  0  0  0  0  0  0  0
   -6.2880   21.0770   66.7750 F   0  0  0  0  0  0  0  0  0  0  0  0
   -4.3890   20.4190   70.9800 C   0  0  1  0  0  0  0  0  0  0  0  0
   -5.7560   20.8680   70.9620 O   0  0  0  0  0  0  0  0  0  0  0  0
   -3.9430   19.9240   72.2560 O   0  0  0  0  0  0  0  0  0  0  0  0
   -3.5040   21.1270   71.8810 C   0  0  1  0  0  0  0  0  0  0  0  0
   -2.3690   21.5640   71.7460 O   0  0  0  0  0  0  0  0  0  0  0  0
   -9.3670   15.1590   66.4610 O   0  0  0  0  0  0  0  0  0  0  0  0
   -9.8310   14.1030   65.5900 C   0  0  1  0  0  0  0  0  0  0  0  0
  -10.2840   12.9570   66.3190 O   0  0  0  0  0  0  0  0  0  0  0  0
  -10.5640   11.8660   65.5100 C   0  0  0  0  0  0  0  0  0  0  0  0
  -10.4430   10.6070   65.9470 C   0  0  0  0  0  0  0  0  0  0  0  0
  -11.0860   12.0830   64.1340 C   0  0  0  0  0  0  0  0  0  0  0  0
  -10.0230   10.2920   67.2140 O   0  0  0  0  0  0  0  0  0  0  0  0
  -11.6550   13.4780   63.9660 C   0  0  0  0  0  0  0  0  0  0  0  0
  -11.0050   11.2870   63.2190 O   0  0  0  0  0  0  0  0  0  0  0  0
  -10.9970   14.6020   64.7430 C   0  0  0  0  0  0  0  0  0  0  0  0
  -12.6300   13.6750   63.2620 O   0  0  0  0  0  0  0  0  0  0  0  0
  -11.3610   15.7650   64.6460 O   0  0  0  0  0  0  0  0  0  0  0  0
  -13.2760   15.7330   73.3030 C   0  0  0  0  0  0  0  0  0  0  0  0
  -12.5080   16.6970   74.0240 N   0  0  0  0  0  0  0  0  0  0  0  0
  -12.5230   15.5450   74.4920 N   0  0  0  0  0  0  0  0  0  0  0  0
  1 39  1  0  0  0  0
  1  2  2  0  0  0  0
  1  6  1  0  0  0  0
  2 16  1  0  0  0  0
  2  3  1  0  0  0  0
  3  4  1  0  0  0  0
  4  5  1  0  0  0  0
  4 15  2  0  0  0  0
  5  6  2  0  0  0  0
  5  7  1  0  0  0  0
  7  8  1  0  0  0  0
  7 13  2  0  0  0  0
  8  9  2  0  0  0  0
  9 10  1  0  0  0  0
  9 11  1  0  0  0  0
 11 12  2  0  0  0  0
 12 13  1  0  0  0  0
 13 14  1  0  0  0  0
 14 15  1  0  0  0  0
 14 51  1  6  0  0  0
 16 17  1  0  0  0  0
 16 22  2  0  0  0  0
 17 18  1  0  0  0  0
 18 19  1  0  0  0  0
 18 20  1  0  0  0  0
 20 21  2  0  0  0  0
 21 23  1  0  0  0  0
 21 22  1  0  0  0  0
 22 24  1  0  0  0  0
 23 33  1  0  0  0  0
 23 27  2  0  0  0  0
 24 25  2  0  0  0  0
 25 27  1  0  0  0  0
 25 26  1  0  0  0  0
 26 29  1  0  0  0  0
 26 28  2  0  0  0  0
 27 32  1  0  0  0  0
 29 30  2  0  0  0  0
 31 29  1  1  0  0  0
 31 32  1  0  0  0  0
 31 34  1  0  0  0  0
 34 35  1  6  0  0  0
 34 37  1  0  0  0  0
 34 36  1  0  0  0  0
 36 37  1  0  0  0  0
 37 38  1  6  0  0  0
 40 39  1  1  0  0  0
 40 48  1  0  0  0  0
 40 41  1  0  0  0  0
 41 42  1  0  0  0  0
 42 44  1  0  0  0  0
 42 43  2  0  0  0  0
 43 45  1  0  0  0  0
 44 47  2  0  0  0  0
 44 46  1  0  0  0  0
 46 49  2  0  0  0  0
 46 48  1  0  0  0  0
 48 50  2  0  0  0  0
 51 52  1  0  0  0  0
 51 53  1  0  0  0  0
 52 53  1  0  0  0  0
M  END
>  <MODEL>
     632

>  <REMARK>
 VINA RESULT:     -13.6      0.000      0.000
  5 active torsions:
  status: ('A' for Active; 'I' for Inactive)
    1  A    between atoms: C_5  and  O_6 
    2  A    between atoms: O_6  and  C_7 
    3  A    between atoms: C_8  and  C_25 
    4  A    between atoms: C_20  and  C_22 
    5  A    between atoms: C_38  and  C_43 

>  <COMPND>
    /Users/duckhoan/Documents/VS_Code/ViDok/Auto_download_vidok/Ligand_receptor/ZINC000085862539_1025_ligand.pdbqt 

>  <AUTHOR>
    GENERATED BY OPEN BABEL 3.1.0

>  <MASTER>
        0    0    0    0    0    0    0    0   53    0   53    0

$$$$
