@<TRIPOS>MOLECULE
*****
 31 35 0 0 0
SMALL
GASTEIGER

@<TRIPOS>ATOM
      1 S          13.6060   -2.0070   24.8070 S.2     1  UNL1       -0.0862
      2 N           7.3080   -0.1870   19.8430 N.ar    1  UNL1       -0.2223
      3 N           9.6450   -0.3180   22.6930 N.am    1  UNL1       -0.2527
      4 N           6.6730    0.4450   17.8730 N.ar    1  UNL1       -0.1288
      5 C           8.1600   -0.8690   20.7970 C.3     1  UNL1        0.2141
      6 C          13.8190   -1.8920   23.1100 C.ar    1  UNL1        0.0352
      7 C           6.4050   -5.9260   27.3320 C.3     1  UNL1        0.0786
      8 O           6.7110   -3.5730   27.6500 O.2     1  UNL1       -0.2730
      9 C          10.8090    0.3950   23.2070 C.3     1  UNL1        0.1253
     10 C           5.7760    0.9380   18.7920 C.ar    1  UNL1        0.1217
     11 C           5.4470    0.8570   21.1990 C.ar    1  UNL1        0.0204
     12 C           8.2140   -3.4710   25.1120 C.ar    1  UNL1        0.0734
     13 C           4.2950    1.6160   21.0360 C.ar    1  UNL1        0.0016
     14 C           3.8910    2.0400   19.7710 C.ar    1  UNL1        0.0017
     15 C          12.8790   -1.0540   22.5540 C.ar    1  UNL1        0.0049
     16 C           9.1230   -1.4000   23.4760 C.ar    1  UNL1        0.0543
     17 C           4.9960   -6.2240   26.8900 C.3     1  UNL1        0.0096
     18 C           6.9670   -4.5710   26.9810 C.2     1  UNL1        0.2451
     19 C           9.5360   -2.7120   23.2470 C.ar    1  UNL1        0.0162
     20 C          11.9810   -0.5050   23.5130 C.ar    1  UNL1        0.0050
     21 C          12.2730   -0.9370   24.7750 C.ar    1  UNL1        0.0328
     22 C           5.2710   -5.9690   28.3230 C.3     1  UNL1        0.0096
     23 C           8.2510   -1.1340   24.5290 C.ar    1  UNL1        0.0162
     24 C           9.1080    0.0990   21.5060 C.2     1  UNL1        0.2545
     25 N           7.5830   -0.2290   18.5140 N.ar    1  UNL1       -0.0634
     26 O           9.3730    1.1860   21.0140 O.2     1  UNL1       -0.2723
     27 C           6.1710    0.5300   20.0610 C.ar    1  UNL1        0.0994
     28 C           4.6260    1.7090   18.6390 C.ar    1  UNL1        0.0225
     29 C           7.8020   -2.1590   25.3420 C.ar    1  UNL1        0.0179
     30 C           9.0870   -3.7370   24.0610 C.ar    1  UNL1        0.0179
     31 N           7.7710   -4.5670   25.8910 N.am    1  UNL1       -0.1792
@<TRIPOS>BOND
     1     5     2    1
     2     6     1   ar
     3     9     3    1
     4    10     4   ar
     5    13    11   ar
     6    14    13   ar
     7    15     6   ar
     8    16     3    1
     9    17     7    1
    10     7    18    1
    11    18     8    2
    12    19    16   ar
    13    20     9    1
    14    20    15   ar
    15    21    20   ar
    16    21     1   ar
    17    22    17    1
    18    22     7    1
    19    23    16   ar
    20    24     5    1
    21    24     3   am
    22    25     4   ar
    23    25     2   ar
    24    26    24    2
    25    27    11   ar
    26    27    10   ar
    27    27     2   ar
    28    28    14   ar
    29    28    10   ar
    30    29    23   ar
    31    29    12   ar
    32    30    19   ar
    33    30    12   ar
    34    31    18   am
    35    31    12    1
