
     RDKit          3D

 33 37  0  0  0  0  0  0  0  0999 V2000
   13.9840   -1.4890   21.4290 Cl  0  0  0  0  0  0  0  0  0  0  0  0
   12.7520   -0.8370   22.4730 C   0  0  0  0  0  0  0  0  0  0  0  0
   11.4250   -1.0970   22.1890 C   0  0  0  0  0  0  0  0  0  0  0  0
   13.1210   -0.0850   23.5610 C   0  0  0  0  0  0  0  0  0  0  0  0
   12.1380    0.4000   24.4020 C   0  0  0  0  0  0  0  0  0  0  0  0
   10.7890    0.1390   24.1670 C   0  0  0  0  0  0  0  0  0  0  0  0
    9.7960    0.5580   25.2290 C   0  0  0  0  0  0  0  0  0  0  0  0
    8.4060    0.5120   24.7530 N   0  0  0  0  0  0  0  0  0  0  0  0
    7.2130    1.4860   25.2010 S   0  0  2  0  0  0  0  0  0  0  0  0
    7.2470    1.5890   26.6200 O   0  0  0  0  0  0  0  0  0  0  0  0
    6.0290    1.0770   24.5280 O   0  0  0  0  0  0  0  0  0  0  0  0
    7.6650    2.9000   24.6020 N   0  0  0  0  0  0  0  0  0  0  0  0
    7.5880    4.1480   25.3930 C   0  0  0  0  0  0  0  0  0  0  0  0
    7.0530    5.2020   24.4280 C   0  0  0  0  0  0  0  0  0  0  0  0
    7.5250    3.2250   23.1680 C   0  0  0  0  0  0  0  0  0  0  0  0
    6.5720    4.4100   23.1940 C   0  0  2  0  0  0  0  0  0  0  0  0
    6.6320    5.2510   21.9270 C   0  0  0  0  0  0  0  0  0  0  0  0
   10.4280   -0.5970   23.0260 C   0  0  0  0  0  0  0  0  0  0  0  0
    8.9700   -0.8390   22.6810 C   0  0  1  0  0  0  0  0  0  0  0  0
    8.0740   -0.6490   23.9060 C   0  0  0  0  0  0  0  0  0  0  0  0
    8.5150   -0.0440   21.4550 C   0  0  0  0  0  0  0  0  0  0  0  0
    9.0740    0.9940   21.1030 O   0  0  0  0  0  0  0  0  0  0  0  0
    7.4090   -0.5360   20.8500 N   0  0  0  0  0  0  0  0  0  0  0  0
    6.6260    0.0550   19.8340 C   0  0  0  0  0  0  0  0  0  0  0  0
    5.4520    0.7810   20.2150 C   0  0  0  0  0  0  0  0  0  0  0  0
    5.0280    0.9460   21.5600 C   0  0  0  0  0  0  0  0  0  0  0  0
    3.9250    1.6940   21.8620 C   0  0  0  0  0  0  0  0  0  0  0  0
    3.1890    2.3110   20.8560 C   0  0  0  0  0  0  0  0  0  0  0  0
    3.5480    2.1720   19.5450 C   0  0  0  0  0  0  0  0  0  0  0  0
    4.6870    1.4060   19.1880 C   0  0  0  0  0  0  0  0  0  0  0  0
    5.1300    1.2560   17.8510 C   0  0  0  0  0  0  0  0  0  0  0  0
    6.2130    0.5810   17.4980 N   0  0  0  0  0  0  0  0  0  0  0  0
    6.9290    0.0040   18.4730 C   0  0  0  0  0  0  0  0  0  0  0  0
  2  1  1  0
  3  2  2  0
  4  2  1  0
  5  4  2  0
  6  5  1  0
  7  6  1  0
  8  7  1  0
  9  8  1  6
 10  9  2  0
 11  9  2  0
 12  9  1  0
 13 12  1  0
 14 13  1  0
 15 12  1  0
 16 15  1  0
 16 14  1  0
 16 17  1  6
 18  6  2  0
 18  3  1  0
 19 18  1  0
 20 19  1  0
 20  8  1  0
 19 21  1  6
 22 21  2  0
 23 21  1  0
 24 23  1  0
 25 24  1  0
 26 25  2  0
 27 26  1  0
 28 27  2  0
 29 28  1  0
 30 29  2  0
 30 25  1  0
 31 30  1  0
 32 31  2  0
 33 32  1  0
 33 24  2  0
M  END
> <BADATOMS>
27;26;29;25;28;8;9;10
> <BADCOMMENTS>
Weak Density;Weak Density;Weak Density;Weak Density;Weak Density;Weak Density;Weak Density;Weak Density
> <BADATOMNAMES>
[HET]1.C28;[HET]1.C27;[HET]1.C30;[HET]1.C26;[HET]1.C29;[HET]1.S9;[HET]1.O10;[HET]1.O11