@<TRIPOS>MOLECULE
*****
 33 37 0 0 0
SMALL
GASTEIGER

@<TRIPOS>ATOM
      1 CL         13.9840   -1.4890   21.4290 Cl      1  UNL1       -0.0823
      2 C          12.7520   -0.8370   22.4730 C.ar    1  UNL1        0.0574
      3 C          11.4250   -1.0970   22.1890 C.ar    1  UNL1        0.0074
      4 C          13.1210   -0.0850   23.5610 C.ar    1  UNL1        0.0111
      5 C          12.1380    0.4000   24.4020 C.ar    1  UNL1       -0.0023
      6 C          10.7890    0.1390   24.1670 C.ar    1  UNL1       -0.0078
      7 C           9.7960    0.5580   25.2290 C.3     1  UNL1        0.1229
      8 N           8.4060    0.5120   24.7530 N.3     1  UNL1       -0.1401
      9 S           7.2130    1.4860   25.2010 S.O2    1  UNL1        0.1023
     10 O           7.2470    1.5890   26.6200 O.2     1  UNL1       -0.1408
     11 O           6.0290    1.0770   24.5280 O.2     1  UNL1       -0.1408
     12 N           7.6650    2.9000   24.6020 N.3     1  UNL1       -0.1453
     13 C           7.5880    4.1480   25.3930 C.3     1  UNL1        0.0969
     14 C           7.0530    5.2020   24.4280 C.3     1  UNL1        0.0206
     15 C           7.5250    3.2250   23.1680 C.3     1  UNL1        0.0969
     16 C           6.5720    4.4100   23.1940 C.3     1  UNL1        0.0192
     17 C           6.6320    5.2510   21.9270 C.3     1  UNL1        0.0015
     18 C          10.4280   -0.5970   23.0260 C.ar    1  UNL1       -0.0142
     19 C           8.9700   -0.8390   22.6810 C.3     1  UNL1        0.1182
     20 C           8.0740   -0.6490   23.9060 C.3     1  UNL1        0.1108
     21 C           8.5150   -0.0440   21.4550 C.2     1  UNL1        0.2507
     22 O           9.0740    0.9940   21.1030 O.2     1  UNL1       -0.2726
     23 N           7.4090   -0.5360   20.8500 N.am    1  UNL1       -0.1773
     24 C           6.6260    0.0550   19.8340 C.ar    1  UNL1        0.0925
     25 C           5.4520    0.7810   20.2150 C.ar    1  UNL1        0.0184
     26 C           5.0280    0.9460   21.5600 C.ar    1  UNL1        0.0014
     27 C           3.9250    1.6940   21.8620 C.ar    1  UNL1        0.0000
     28 C           3.1890    2.3110   20.8560 C.ar    1  UNL1        0.0001
     29 C           3.5480    2.1720   19.5450 C.ar    1  UNL1        0.0016
     30 C           4.6870    1.4060   19.1880 C.ar    1  UNL1        0.0204
     31 C           5.1300    1.2560   17.8510 C.ar    1  UNL1        0.0989
     32 N           6.2130    0.5810   17.4980 N.ar    1  UNL1       -0.2410
     33 C           6.9290    0.0040   18.4730 C.ar    1  UNL1        0.1154
@<TRIPOS>BOND
     1     2     1    1
     2     3     2   ar
     3     4     2   ar
     4     5     4   ar
     5     6     5   ar
     6     7     6    1
     7     8     7    1
     8     9     8    1
     9    10     9    2
    10    11     9    2
    11    12     9    1
    12    13    12    1
    13    14    13    1
    14    15    12    1
    15    16    15    1
    16    16    14    1
    17    16    17    1
    18    18     6   ar
    19    18     3   ar
    20    19    18    1
    21    20    19    1
    22    20     8    1
    23    19    21    1
    24    22    21    2
    25    23    21   am
    26    24    23    1
    27    25    24   ar
    28    26    25   ar
    29    27    26   ar
    30    28    27   ar
    31    29    28   ar
    32    30    29   ar
    33    30    25   ar
    34    31    30   ar
    35    32    31   ar
    36    33    32   ar
    37    33    24   ar
