@<TRIPOS>MOLECULE
*****
 26 29 0 0 0
SMALL
GASTEIGER

@<TRIPOS>ATOM
      1 O           6.6420    1.0480   16.9340 O.2     1  UNL1       -0.2652
      2 C           6.0480    0.8190   17.9860 C.ar    1  UNL1        0.2794
      3 C           6.3720   -0.2570   18.8560 C.ar    1  UNL1        0.0671
      4 N           5.0560    1.6600   18.4150 N.ar    1  UNL1       -0.2079
      5 C           4.3930    1.5370   19.6300 C.ar    1  UNL1        0.0847
      6 C           4.7370    0.4830   20.5010 C.ar    1  UNL1        0.0223
      7 C           4.0670    0.3650   21.7210 C.ar    1  UNL1        0.0016
      8 C           3.0560    1.2550   22.0480 C.ar    1  UNL1        0.0001
      9 C           2.7070    2.2680   21.1810 C.ar    1  UNL1        0.0015
     10 C           3.3770    2.4280   19.9780 C.ar    1  UNL1        0.0192
     11 C           5.7760   -0.4490   20.0600 C.ar    1  UNL1        0.0598
     12 C           6.1620   -1.6540   20.8470 C.2     1  UNL1        0.2493
     13 O           5.6440   -2.7250   20.5710 O.2     1  UNL1       -0.2699
     14 N           7.0730   -1.5350   21.8300 N.am    1  UNL1       -0.2726
     15 C           7.3520   -2.6370   22.7620 C.3     1  UNL1        0.1151
     16 C           8.8370   -2.9770   22.7350 C.3     1  UNL1        0.1124
     17 C           7.8860   -0.3350   22.0730 C.3     1  UNL1        0.1151
     18 C           9.3700   -0.6910   22.0580 C.3     1  UNL1        0.1124
     19 N           9.6440   -1.7790   23.0060 N.pl3   1  UNL1       -0.3023
     20 C          10.9830   -1.9610   23.4650 C.ar    1  UNL1        0.0758
     21 C          11.2440   -2.7600   24.6010 C.ar    1  UNL1        0.1533
     22 F          10.2140   -3.4260   25.1750 F       1  UNL1       -0.2029
     23 C          12.0740   -1.3520   22.8480 C.ar    1  UNL1        0.0168
     24 C          13.3530   -1.5230   23.3620 C.ar    1  UNL1        0.0014
     25 C          13.5660   -2.2930   24.4940 C.ar    1  UNL1        0.0024
     26 C          12.5060   -2.9210   25.1250 C.ar    1  UNL1        0.0309
@<TRIPOS>BOND
     1     2     1    2
     2     3     2   ar
     3     4     2   ar
     4     5     4   ar
     5     6     5   ar
     6     7     6   ar
     7     8     7   ar
     8     9     8   ar
     9    10     9   ar
    10    10     5   ar
    11    11     6   ar
    12    11     3   ar
    13    12    11    1
    14    13    12    2
    15    14    12   am
    16    15    14    1
    17    16    15    1
    18    17    14    1
    19    18    17    1
    20    19    18    1
    21    19    16    1
    22    20    19    1
    23    21    20   ar
    24    22    21    1
    25    23    20   ar
    26    24    23   ar
    27    25    24   ar
    28    26    25   ar
    29    26    21   ar
