@<TRIPOS>MOLECULE
*****
 26 29 0 0 0
SMALL
GASTEIGER

@<TRIPOS>ATOM
      1 O           6.7860    1.0700   16.7290 O.2     1  UNL1       -0.2652
      2 C           6.1880    0.8010   17.7750 C.ar    1  UNL1        0.2794
      3 C           6.4190   -0.3780   18.5380 C.ar    1  UNL1        0.0671
      4 N           5.2770    1.6840   18.2960 N.ar    1  UNL1       -0.2079
      5 C           4.6100    1.5010   19.5030 C.ar    1  UNL1        0.0847
      6 C           4.8750    0.3510   20.2710 C.ar    1  UNL1        0.0223
      7 C           4.2360    0.1860   21.4980 C.ar    1  UNL1        0.0016
      8 C           3.3110    1.1230   21.9260 C.ar    1  UNL1        0.0001
      9 C           3.0280    2.2300   21.1530 C.ar    1  UNL1        0.0015
     10 C           3.6800    2.4370   19.9500 C.ar    1  UNL1        0.0192
     11 C           5.8170   -0.6190   19.7310 C.ar    1  UNL1        0.0598
     12 C           6.1400   -1.8560   20.4700 C.2     1  UNL1        0.2493
     13 O           5.2780   -2.7050   20.6520 O.2     1  UNL1       -0.2699
     14 N           7.3770   -1.9930   20.9560 N.am    1  UNL1       -0.2724
     15 C           8.6450   -1.2570   20.9930 C.3     1  UNL1        0.1170
     16 C           7.8130   -3.0310   21.8930 C.3     1  UNL1        0.1170
     17 C           9.1650   -2.2990   22.0020 C.3     1  UNL1        0.1321
     18 N           9.5090   -1.7930   23.3160 N.pl3   1  UNL1       -0.2328
     19 C          10.5490   -0.9310   23.5450 C.ar    1  UNL1        0.0992
     20 C          10.5560   -0.2310   24.7590 C.ar    1  UNL1        0.1534
     21 O           9.5110   -0.5300   25.5880 O.3     1  UNL1       -0.4701
     22 C           9.3550    0.2360   26.7820 C.3     1  UNL1        0.2525
     23 C          11.5870   -0.7370   22.6340 C.ar    1  UNL1        0.0192
     24 C          12.6160    0.1420   22.9450 C.ar    1  UNL1        0.0015
     25 C          12.6100    0.8300   24.1430 C.ar    1  UNL1        0.0032
     26 C          11.5800    0.6550   25.0550 C.ar    1  UNL1        0.0382
@<TRIPOS>BOND
     1     2     1    2
     2     3     2   ar
     3     4     2   ar
     4     5     4   ar
     5     6     5   ar
     6     7     6   ar
     7     8     7   ar
     8     9     8   ar
     9    10     9   ar
    10    10     5   ar
    11    11     6   ar
    12    11     3   ar
    13    12    11    1
    14    13    12    2
    15    14    12   am
    16    15    14    1
    17    16    14    1
    18    17    15    1
    19    17    16    1
    20    17    18    1
    21    19    18    1
    22    20    19   ar
    23    21    20    1
    24    22    21    1
    25    23    19   ar
    26    24    23   ar
    27    25    24   ar
    28    26    20   ar
    29    26    25   ar
