@<TRIPOS>MOLECULE
*****
 17 18 0 0 0
SMALL
GASTEIGER

@<TRIPOS>ATOM
      1 N           5.7050   -3.7520   23.7250 N.pl3   1  UNL1       -0.3041
      2 C           1.4730   -2.4470   28.2960 C.3     1  UNL1        0.2525
      3 O           2.8940   -2.3260   28.2990 O.3     1  UNL1       -0.4714
      4 C           3.5750   -2.6900   27.1670 C.ar    1  UNL1        0.1388
      5 C           6.6260   -2.7870   23.0920 C.3     1  UNL1        0.1123
      6 C           6.4960   -4.2370   19.9520 C.2     1  UNL1        0.2262
      7 C           7.0510   -3.0870   19.1490 C.3     1  UNL1        0.0948
      8 C           3.0670   -3.6390   26.2920 C.ar    1  UNL1        0.0382
      9 C           3.7780   -3.9840   25.1580 C.ar    1  UNL1        0.0176
     10 C           5.0160   -3.4030   24.8750 C.ar    1  UNL1        0.0481
     11 C           5.5080   -2.4440   25.7640 C.ar    1  UNL1        0.0176
     12 C           4.8000   -2.0940   26.9000 C.ar    1  UNL1        0.0382
     13 C           5.4230   -5.0490   23.0820 C.3     1  UNL1        0.1123
     14 C           6.4600   -5.4890   22.0720 C.3     1  UNL1        0.1148
     15 C           7.5690   -3.3920   22.0770 C.3     1  UNL1        0.1148
     16 N           6.8500   -4.3520   21.2520 N.am    1  UNL1       -0.2760
     17 O           5.7430   -5.0370   19.4120 O.2     1  UNL1       -0.2749
@<TRIPOS>BOND
     1     3     2    1
     2     4     3    1
     3     5     1    1
     4     7     6    1
     5     8     4   ar
     6     9     8   ar
     7    10     9   ar
     8    10     1    1
     9    11    10   ar
    10    12     4   ar
    11    12    11   ar
    12    13     1    1
    13    14    13    1
    14    15     5    1
    15    16    14    1
    16    16     6   am
    17    16    15    1
    18    17     6    2
