@<TRIPOS>MOLECULE
*****
 24 26 0 0 0
SMALL
GASTEIGER

@<TRIPOS>ATOM
      1 O           9.2790    0.9870   21.0500 O.2     1  UNL1       -0.2729
      2 C           8.9610   -0.1860   21.2200 C.2     1  UNL1        0.2473
      3 N           7.8280   -0.7340   20.7240 N.am    1  UNL1       -0.1779
      4 C           6.9370   -0.0980   19.8230 C.ar    1  UNL1        0.0885
      5 C           7.1800   -0.0890   18.4480 C.ar    1  UNL1        0.1151
      6 N           6.3970    0.5340   17.5620 N.ar    1  UNL1       -0.2410
      7 C           5.3180    1.1660   18.0330 C.ar    1  UNL1        0.0987
      8 C           4.9870    1.2170   19.3730 C.ar    1  UNL1        0.0177
      9 C           5.8020    0.5850   20.3070 C.ar    1  UNL1       -0.0034
     10 C           5.4900    0.6790   21.7780 C.3     1  UNL1        0.0325
     11 C           9.8430   -1.1510   21.9990 C.3     1  UNL1        0.1076
     12 C          10.1450   -0.7130   23.4430 C.3     1  UNL1        0.0898
     13 C          11.0920   -1.6020   24.2120 C.ar    1  UNL1       -0.0003
     14 C          12.3660   -1.2380   24.5610 C.ar    1  UNL1        0.0325
     15 S          13.1890   -2.4860   25.4030 S.2     1  UNL1       -0.0862
     16 C          11.8510   -3.5310   25.3260 C.ar    1  UNL1        0.0352
     17 C          10.8020   -2.9260   24.6520 C.ar    1  UNL1        0.0045
     18 N           8.8970   -0.3550   24.1670 N.3     1  UNL1       -0.2697
     19 C           7.9870   -1.4760   24.4580 C.3     1  UNL1        0.0749
     20 C           6.6090   -0.9770   24.9030 C.3     1  UNL1        0.0502
     21 C           6.7200   -0.0350   26.0890 C.3     1  UNL1        0.1548
     22 O           5.4440    0.5540   26.3740 O.3     1  UNL1       -0.2231
     23 C           7.7510    1.0540   25.8500 C.3     1  UNL1        0.0502
     24 C           9.0840    0.4690   25.3720 C.3     1  UNL1        0.0749
@<TRIPOS>BOND
     1     2     1    2
     2     3     2   am
     3     4     3    1
     4     5     4   ar
     5     6     5   ar
     6     7     6   ar
     7     8     7   ar
     8     9     8   ar
     9     9     4   ar
    10    10     9    1
    11    11     2    1
    12    12    11    1
    13    13    12    1
    14    14    13   ar
    15    15    14   ar
    16    16    15   ar
    17    17    16   ar
    18    17    13   ar
    19    18    12    1
    20    19    18    1
    21    20    19    1
    22    21    20    1
    23    21    22    1
    24    23    21    1
    25    24    23    1
    26    24    18    1
