@<TRIPOS>MOLECULE
*****
 23 25 0 0 0
SMALL
GASTEIGER

@<TRIPOS>ATOM
      1 N          12.5370    1.7870   26.1670 N.1     1  UNL1       -0.1908
      2 C          12.2380    1.1310   25.2860 C.1     1  UNL1        0.1004
      3 C          11.9000    0.3080   24.1550 C.ar    1  UNL1        0.0690
      4 C          12.9100   -0.1880   23.3360 C.ar    1  UNL1        0.0216
      5 C          12.5610   -0.9440   22.2370 C.ar    1  UNL1        0.0580
      6 CL         13.8200   -1.5730   21.2080 Cl      1  UNL1       -0.0822
      7 C          10.5640    0.0460   23.8600 C.ar    1  UNL1        0.0065
      8 C          10.2290   -0.7070   22.7390 C.ar    1  UNL1       -0.0115
      9 C          11.2410   -1.2110   21.9280 C.ar    1  UNL1        0.0077
     10 C           8.7780   -0.9680   22.4000 C.3     1  UNL1        0.1135
     11 C           8.2170   -0.0310   21.3480 C.2     1  UNL1        0.2500
     12 O           8.4200    1.1840   21.3820 O.2     1  UNL1       -0.2726
     13 N           7.5650   -0.6580   20.3420 N.am    1  UNL1       -0.1773
     14 C           6.5190   -0.2230   19.5020 C.ar    1  UNL1        0.0925
     15 C           5.5480    0.7280   19.9570 C.ar    1  UNL1        0.0184
     16 C           5.1440    0.8610   21.3120 C.ar    1  UNL1        0.0014
     17 C           4.1260    1.7000   21.6660 C.ar    1  UNL1        0.0000
     18 C           3.4690    2.4590   20.7080 C.ar    1  UNL1        0.0001
     19 C           3.8130    2.3650   19.3910 C.ar    1  UNL1        0.0016
     20 C           4.8470    1.4880   18.9760 C.ar    1  UNL1        0.0204
     21 C           5.1440    1.2420   17.6180 C.ar    1  UNL1        0.0989
     22 N           5.9940    0.3210   17.1960 N.ar    1  UNL1       -0.2410
     23 C           6.6360   -0.3960   18.1230 C.ar    1  UNL1        0.1154
@<TRIPOS>BOND
     1     2     1    3
     2     3     2    1
     3     4     3   ar
     4     5     4   ar
     5     6     5    1
     6     7     3   ar
     7     8     7   ar
     8     9     8   ar
     9     9     5   ar
    10    10     8    1
    11    11    10    1
    12    12    11    2
    13    13    11   am
    14    14    13    1
    15    15    14   ar
    16    16    15   ar
    17    17    16   ar
    18    18    17   ar
    19    19    18   ar
    20    20    19   ar
    21    20    15   ar
    22    21    20   ar
    23    22    21   ar
    24    23    22   ar
    25    23    14   ar
