@<TRIPOS>MOLECULE
*****
 20 22 0 0 0
SMALL
GASTEIGER

@<TRIPOS>ATOM
      1 O           8.6790    0.7470   21.2930 O.2     1  UNL1       -0.2711
      2 C           8.3130   -0.4060   21.4940 C.2     1  UNL1        0.2671
      3 C           8.8510   -1.2170   22.6560 C.3     1  UNL1        0.1150
      4 C          10.2660   -0.8150   23.0000 C.ar    1  UNL1       -0.0121
      5 C          10.5280    0.0650   24.0420 C.ar    1  UNL1       -0.0037
      6 C          11.8210    0.4780   24.3100 C.ar    1  UNL1        0.0006
      7 C          12.8790    0.0070   23.5440 C.ar    1  UNL1        0.0114
      8 C          11.3280   -1.3050   22.2480 C.ar    1  UNL1        0.0076
      9 C          12.6140   -0.9030   22.5410 C.ar    1  UNL1        0.0574
     10 CL         13.9380   -1.6330   21.6810 Cl      1  UNL1       -0.0823
     11 N           7.4240   -1.0520   20.7170 N.am    1  UNL1       -0.0775
     12 N           6.7870   -0.4560   19.6440 N.ar    1  UNL1       -0.1349
     13 C           5.6690    0.2470   19.7370 C.ar    1  UNL1        0.1217
     14 C           5.5280    0.7700   18.4540 C.ar    1  UNL1        0.1237
     15 N           6.5710    0.3180   17.6710 N.ar    1  UNL1       -0.1272
     16 N           7.3290   -0.4460   18.3960 N.ar    1  UNL1       -0.0439
     17 C           4.7570    0.5260   20.7450 C.ar    1  UNL1        0.0224
     18 C           3.6980    1.3700   20.4490 C.ar    1  UNL1        0.0017
     19 C           3.5450    1.9030   19.1700 C.ar    1  UNL1        0.0017
     20 C           4.4560    1.6070   18.1600 C.ar    1  UNL1        0.0226
@<TRIPOS>BOND
     1     2     1    2
     2     3     2    1
     3     4     3    1
     4     5     4   ar
     5     6     5   ar
     6     7     6   ar
     7     8     4   ar
     8     9     8   ar
     9     9     7   ar
    10    10     9    1
    11    11     2   am
    12    12    11    1
    13    13    12   ar
    14    14    13   ar
    15    15    14   ar
    16    16    15   ar
    17    16    12   ar
    18    17    13   ar
    19    18    17   ar
    20    19    18   ar
    21    20    19   ar
    22    20    14   ar
