@<TRIPOS>MOLECULE
*****
 16 16 0 0 0
SMALL
GASTEIGER

@<TRIPOS>ATOM
      1 O           9.7330    0.9630   21.2340 O.2     1  UNL1       -0.2704
      2 C           9.3370   -0.1840   21.4330 C.2     1  UNL1        0.2729
      3 C          10.1790   -1.1660   22.2450 C.3     1  UNL1        0.1984
      4 O          11.5160   -0.6600   22.4320 O.3     1  UNL1       -0.2930
      5 C          12.4650   -1.1420   21.5810 C.3     1  UNL1        0.4502
      6 F          13.0680   -2.1690   22.1870 F       1  UNL1       -0.1663
      7 F          13.4370   -0.2160   21.4910 F       1  UNL1       -0.1663
      8 C           9.6220   -1.3840   23.6360 C.3     1  UNL1        0.0423
      9 N           8.1790   -0.6900   20.9370 N.am    1  UNL1       -0.1759
     10 C           7.2850   -0.0820   20.0200 C.ar    1  UNL1        0.0886
     11 C           6.1070    0.5320   20.4860 C.ar    1  UNL1       -0.0034
     12 C           5.8460    0.7480   21.9550 C.3     1  UNL1        0.0325
     13 C           5.2200    1.0210   19.5330 C.ar    1  UNL1        0.0177
     14 C           5.5360    0.9260   18.1920 C.ar    1  UNL1        0.0987
     15 N           6.6690    0.3840   17.7360 N.ar    1  UNL1       -0.2410
     16 C           7.5180   -0.1150   18.6440 C.ar    1  UNL1        0.1151
@<TRIPOS>BOND
     1     2     1    2
     2     3     2    1
     3     4     3    1
     4     5     4    1
     5     5     6    1
     6     7     5    1
     7     3     8    1
     8     9     2   am
     9    10     9    1
    10    11    10   ar
    11    12    11    1
    12    13    11   ar
    13    14    13   ar
    14    15    14   ar
    15    16    15   ar
    16    16    10   ar
