@<TRIPOS>MOLECULE
*****
 23 25 0 0 0
SMALL
GASTEIGER

@<TRIPOS>ATOM
      1 N           9.2420   -0.6540   21.9980 N.am    1  UNL1       -0.1788
      2 N          12.4430    4.2120   21.7230 N.am    1  UNL1       -0.1652
      3 N           6.3430    0.6510   17.4220 N.ar    1  UNL1       -0.2227
      4 C          12.7850   -1.0280   22.9950 C.ar    1  UNL1       -0.0175
      5 C          12.1760    1.2950   23.1200 C.ar    1  UNL1        0.1416
      6 O          12.6760    2.5330   23.4630 O.3     1  UNL1       -0.4582
      7 C           5.2900    1.4080   17.7440 C.ar    1  UNL1        0.1989
      8 C          11.4940   -1.3140   22.5710 C.ar    1  UNL1        0.0125
      9 C           6.3520   -0.0700   19.7050 C.ar    1  UNL1        0.0254
     10 C           7.1210   -0.6740   20.8590 C.3     1  UNL1        0.1165
     11 C           8.3910    0.0660   21.2350 C.2     1  UNL1        0.2501
     12 C          10.8880    1.0100   22.7040 C.ar    1  UNL1        0.0535
     13 C          12.8510    4.8570   23.6540 C.3     1  UNL1        0.1539
     14 C           6.8530   -0.0850   18.4160 C.ar    1  UNL1        0.0984
     15 C          12.0100    3.7300   23.0350 C.3     1  UNL1        0.2718
     16 C          13.0900    5.2870   22.2150 C.2     1  UNL1        0.2499
     17 C          13.8010   -2.1320   23.1690 C.3     1  UNL1        0.0312
     18 N           4.7250    1.5220   18.9510 N.ar    1  UNL1       -0.2227
     19 O           8.6060    1.2180   20.8710 O.2     1  UNL1       -0.2726
     20 O          13.6450    6.2360   21.6620 O.2     1  UNL1       -0.2730
     21 C           5.2780    0.7770   19.9150 C.ar    1  UNL1        0.0984
     22 C          10.5440   -0.3080   22.4250 C.ar    1  UNL1        0.0761
     23 C          13.1210    0.2920   23.2660 C.ar    1  UNL1        0.0328
@<TRIPOS>BOND
     1     6     5    1
     2     7     3   ar
     3     8     4   ar
     4    10     9    1
     5    11    10    1
     6    11     1   am
     7    12     5   ar
     8    14     9   ar
     9    14     3   ar
    10    15     2    1
    11    15    13    1
    12    15     6    1
    13    16     2   am
    14    16    13    1
    15    17     4    1
    16    18     7   ar
    17    19    11    2
    18    20    16    2
    19    21    18   ar
    20    21     9   ar
    21    22    12   ar
    22    22     1    1
    23    22     8   ar
    24    23     5   ar
    25    23     4   ar
