@<TRIPOS>MOLECULE
*****
 20 21 0 0 0
SMALL
GASTEIGER

@<TRIPOS>ATOM
      1 O           7.7930   -2.6210   20.9380 O.2     1  UNL1       -0.2726
      2 C           7.9450   -1.6940   21.7240 C.2     1  UNL1        0.2493
      3 C           8.5750   -1.8970   23.1030 C.3     1  UNL1        0.1022
      4 C           9.9640   -1.2710   23.1460 C.ar    1  UNL1       -0.0138
      5 C          10.9210   -1.5890   22.1900 C.ar    1  UNL1       -0.0038
      6 C          12.1500   -0.9430   22.1740 C.ar    1  UNL1       -0.0003
      7 C          12.4370    0.0240   23.1170 C.ar    1  UNL1       -0.0000
      8 C          11.5060    0.3270   24.0920 C.ar    1  UNL1       -0.0003
      9 C          10.2770   -0.3160   24.1060 C.ar    1  UNL1       -0.0038
     10 C           8.6050   -3.3960   23.4380 C.3     1  UNL1        0.0324
     11 C           8.9530   -3.7080   24.8800 C.3     1  UNL1        0.0896
     12 N           8.8570   -5.1460   25.1310 N.3     1  UNL1       -0.2165
     13 C           9.7700   -5.5520   26.1980 C.3     1  UNL1        0.1075
     14 N           7.4410   -0.4640   21.5110 N.am    1  UNL1       -0.1774
     15 C           7.0460    0.1250   20.2860 C.ar    1  UNL1        0.0925
     16 C           7.4820   -0.2370   19.0100 C.ar    1  UNL1        0.1154
     17 N           6.9180    0.2110   17.8830 N.ar    1  UNL1       -0.2410
     18 C           5.8710    1.0360   18.0030 C.ar    1  UNL1        0.0990
     19 C           5.3630    1.4500   19.2180 C.ar    1  UNL1        0.0220
     20 C           5.9670    0.9960   20.3740 C.ar    1  UNL1        0.0198
@<TRIPOS>BOND
     1     2     1    2
     2     3     2    1
     3     4     3    1
     4     5     4   ar
     5     6     5   ar
     6     7     6   ar
     7     8     7   ar
     8     9     4   ar
     9     9     8   ar
    10     3    10    1
    11    11    10    1
    12    12    11    1
    13    13    12    1
    14    14     2   am
    15    15    14    1
    16    16    15   ar
    17    17    16   ar
    18    18    17   ar
    19    19    18   ar
    20    20    19   ar
    21    20    15   ar
