@<TRIPOS>MOLECULE
*****
 18 19 0 0 0
SMALL
GASTEIGER

@<TRIPOS>ATOM
      1 O           8.6970    0.5120   21.2930 O.2     1  UNL1       -0.2726
      2 C           7.9650   -0.4640   21.5200 C.2     1  UNL1        0.2500
      3 C           8.1590   -1.3800   22.7120 C.3     1  UNL1        0.1135
      4 C           9.6090   -1.2970   23.0910 C.ar    1  UNL1       -0.0130
      5 C          10.5770   -1.8000   22.2390 C.ar    1  UNL1       -0.0041
      6 C          11.9000   -1.4350   22.3800 C.ar    1  UNL1       -0.0046
      7 C          10.0170   -0.4920   24.1420 C.ar    1  UNL1       -0.0041
      8 C          11.3430   -0.1400   24.2880 C.ar    1  UNL1       -0.0046
      9 C          12.3010   -0.5810   23.3920 C.ar    1  UNL1       -0.0219
     10 C          13.7190   -0.1000   23.4790 C.3     1  UNL1        0.0310
     11 N           6.9110   -0.7990   20.7740 N.am    1  UNL1       -0.1777
     12 C           6.3980   -0.0170   19.7300 C.ar    1  UNL1        0.0885
     13 C           5.3010    0.8220   19.9610 C.ar    1  UNL1       -0.0034
     14 C           4.7530    1.0600   21.3450 C.3     1  UNL1        0.0325
     15 C           4.7740    1.4920   18.8690 C.ar    1  UNL1        0.0177
     16 C           5.3710    1.3540   17.6350 C.ar    1  UNL1        0.0987
     17 N           6.4490    0.5930   17.4180 N.ar    1  UNL1       -0.2410
     18 C           6.9430   -0.0860   18.4560 C.ar    1  UNL1        0.1151
@<TRIPOS>BOND
     1     2     1    2
     2     3     2    1
     3     4     3    1
     4     5     4   ar
     5     6     5   ar
     6     7     4   ar
     7     8     7   ar
     8     9     8   ar
     9     9     6   ar
    10    10     9    1
    11    11     2   am
    12    12    11    1
    13    13    12   ar
    14    14    13    1
    15    15    13   ar
    16    16    15   ar
    17    17    16   ar
    18    18    17   ar
    19    18    12   ar
