@<TRIPOS>MOLECULE
*****
 27 30 0 0 0
SMALL
GASTEIGER

@<TRIPOS>ATOM
      1 O           9.3000    1.1990   21.1750 O.2     1  UNL1       -0.2701
      2 C           8.8430    0.1400   21.5890 C.2     1  UNL1        0.2742
      3 C           9.4670   -0.6380   22.7820 C.3     1  UNL1        0.1878
      4 C          10.9680   -0.4510   22.7600 C.ar    1  UNL1        0.0489
      5 C          11.7540   -1.1070   21.8170 C.ar    1  UNL1        0.0312
      6 C          13.1220   -1.0070   21.9020 C.ar    1  UNL1        0.1424
      7 F          13.8670   -1.6230   20.9450 F       1  UNL1       -0.2041
      8 C          13.7780   -0.2960   22.8780 C.ar    1  UNL1        0.0624
      9 C          12.9950    0.3490   23.7990 C.ar    1  UNL1        0.1758
     10 F          13.5840    1.0730   24.7780 F       1  UNL1       -0.2009
     11 C          11.6120    0.2840   23.7760 C.ar    1  UNL1        0.1645
     12 O          10.9340    0.8890   24.8000 O.3     1  UNL1       -0.4733
     13 C           9.5610    1.1920   24.5040 C.3     1  UNL1        0.2088
     14 C           8.8150   -0.0410   24.0400 C.3     1  UNL1        0.0879
     15 O           9.1220   -2.0150   22.5860 O.3     1  UNL1       -0.3428
     16 C           9.5000   -2.9370   23.6150 C.3     1  UNL1        0.1750
     17 N           7.7530   -0.4520   21.0610 N.am    1  UNL1       -0.1754
     18 C           7.0040    0.0020   19.9620 C.ar    1  UNL1        0.0925
     19 C           5.8550    0.8150   20.2090 C.ar    1  UNL1        0.0184
     20 C           5.4010    1.1650   21.5070 C.ar    1  UNL1        0.0014
     21 C           4.3160    1.9800   21.6750 C.ar    1  UNL1        0.0000
     22 C           3.6310    2.4790   20.5780 C.ar    1  UNL1        0.0001
     23 C           4.0280    2.1690   19.3100 C.ar    1  UNL1        0.0016
     24 C           5.1480    1.3300   19.0900 C.ar    1  UNL1        0.0204
     25 C           5.6290    1.0030   17.8000 C.ar    1  UNL1        0.0989
     26 N           6.6920    0.2470   17.5710 N.ar    1  UNL1       -0.2410
     27 C           7.3480   -0.2380   18.6330 C.ar    1  UNL1        0.1154
@<TRIPOS>BOND
     1     2     1    2
     2     3     2    1
     3     4     3    1
     4     5     4   ar
     5     6     5   ar
     6     7     6    1
     7     8     6   ar
     8     9     8   ar
     9    10     9    1
    10    11     9   ar
    11    11     4   ar
    12    12    11    1
    13    13    12    1
    14    14    13    1
    15    14     3    1
    16     3    15    1
    17    16    15    1
    18    17     2   am
    19    18    17    1
    20    19    18   ar
    21    20    19   ar
    22    21    20   ar
    23    22    21   ar
    24    23    22   ar
    25    24    23   ar
    26    24    19   ar
    27    25    24   ar
    28    26    25   ar
    29    27    26   ar
    30    27    18   ar
