@<TRIPOS>MOLECULE
*****
 16 17 0 0 0
SMALL
GASTEIGER

@<TRIPOS>ATOM
      1 C           8.7390   -0.2790   21.3670 C.2     1  UNL1        0.3478
      2 C          10.6660   -0.5430   22.8360 C.ar    1  UNL1        0.0750
      3 C          10.7070    0.2840   23.9390 C.ar    1  UNL1        0.0167
      4 C          11.9150    0.7890   24.3530 C.ar    1  UNL1        0.0013
      5 C          13.0720    0.4730   23.6550 C.ar    1  UNL1        0.0001
      6 C          13.0220   -0.3540   22.5460 C.ar    1  UNL1        0.0013
      7 C          11.8080   -0.8600   22.1250 C.ar    1  UNL1        0.0167
      8 C           6.7490   -0.0030   19.8770 C.ar    1  UNL1        0.0941
      9 C           5.5470    0.6240   20.1630 C.ar    1  UNL1        0.0198
     10 C           4.9190    1.2890   19.1220 C.ar    1  UNL1        0.0220
     11 C           5.5090    1.2610   17.8640 C.ar    1  UNL1        0.0990
     12 C           7.2890    0.0280   18.6020 C.ar    1  UNL1        0.1154
     13 N           9.3770   -1.0150   22.4320 N.am    1  UNL1       -0.1607
     14 N           7.4290   -0.6970   20.9370 N.am    1  UNL1       -0.1591
     15 N           6.6560    0.6620   17.6510 N.ar    1  UNL1       -0.2410
     16 O           9.2940    0.6380   20.8600 O.2     1  UNL1       -0.2484
@<TRIPOS>BOND
     1     3     2   ar
     2     4     3   ar
     3     5     4   ar
     4     6     5   ar
     5     7     2   ar
     6     7     6   ar
     7     9     8   ar
     8    10     9   ar
     9    11    10   ar
    10    12     8   ar
    11    13     1   am
    12    13     2    1
    13    14     8    1
    14    14     1   am
    15    15    12   ar
    16    15    11   ar
    17    16     1    2
