@<TRIPOS>MOLECULE
*****
 27 29 0 0 0
SMALL
GASTEIGER

@<TRIPOS>ATOM
      1 CL         13.8370   -1.7220   22.0430 Cl      1  UNL1       -0.0814
      2 C          12.3950   -0.9070   22.5540 C.ar    1  UNL1        0.0680
      3 C          12.4610    0.1860   23.4020 C.ar    1  UNL1        0.0682
      4 CL         13.9820    0.9080   23.8040 Cl      1  UNL1       -0.0814
      5 C          11.2960    0.7410   23.9050 C.ar    1  UNL1        0.0120
      6 C          10.0720    0.2180   23.5320 C.ar    1  UNL1       -0.0005
      7 C          11.1670   -1.4090   22.1610 C.ar    1  UNL1        0.0108
      8 C           9.9900   -0.8440   22.6410 C.ar    1  UNL1        0.0143
      9 C           8.6520   -1.3510   22.1630 C.3     1  UNL1        0.2153
     10 O           7.8980   -1.8460   23.2730 O.3     1  UNL1       -0.3400
     11 C           7.9980   -3.2630   23.4490 C.3     1  UNL1        0.1751
     12 C           6.9310   -3.9620   22.6600 C.3     1  UNL1        0.1742
     13 O           6.8430   -5.3660   22.8790 O.3     1  UNL1       -0.3484
     14 C           5.7400   -5.9370   22.1870 C.3     1  UNL1        0.1742
     15 C           7.9340   -0.3110   21.2960 C.2     1  UNL1        0.2771
     16 O           8.0840    0.8910   21.5010 O.2     1  UNL1       -0.2700
     17 N           7.3040   -0.8120   20.2180 N.am    1  UNL1       -0.1753
     18 C           6.3660   -0.2320   19.3450 C.ar    1  UNL1        0.0925
     19 C           5.4170    0.7500   19.7840 C.ar    1  UNL1        0.0184
     20 C           4.9880    0.8940   21.1300 C.ar    1  UNL1        0.0014
     21 C           3.9790    1.7550   21.4620 C.ar    1  UNL1        0.0000
     22 C           3.3470    2.5100   20.4900 C.ar    1  UNL1        0.0001
     23 C           3.7250    2.4150   19.1830 C.ar    1  UNL1        0.0016
     24 C           4.7660    1.5350   18.7930 C.ar    1  UNL1        0.0204
     25 C           5.1220    1.3160   17.4440 C.ar    1  UNL1        0.0989
     26 N           5.9850    0.4040   17.0390 N.ar    1  UNL1       -0.2410
     27 C           6.5660   -0.3530   17.9740 C.ar    1  UNL1        0.1154
@<TRIPOS>BOND
     1     2     1    1
     2     3     2   ar
     3     4     3    1
     4     5     3   ar
     5     6     5   ar
     6     7     2   ar
     7     8     6   ar
     8     8     7   ar
     9     9     8    1
    10     9    10    1
    11    11    10    1
    12    12    11    1
    13    13    12    1
    14    14    13    1
    15    15     9    1
    16    16    15    2
    17    17    15   am
    18    18    17    1
    19    19    18   ar
    20    20    19   ar
    21    21    20   ar
    22    22    21   ar
    23    23    22   ar
    24    24    23   ar
    25    24    19   ar
    26    25    24   ar
    27    26    25   ar
    28    27    26   ar
    29    27    18   ar
