@<TRIPOS>MOLECULE
*****
 37 40 0 0 0
SMALL
GASTEIGER

@<TRIPOS>ATOM
      1 O           5.1570   -2.0410   21.4640 O.2     1  UNL1       -0.2678
      2 C           6.3200   -2.2860   21.7180 C.2     1  UNL1        0.2727
      3 C           6.6460   -3.7200   22.0120 C.ar    1  UNL1        0.1558
      4 N           5.7060   -4.6970   21.7240 N.ar    1  UNL1       -0.2178
      5 C           6.2410   -5.8260   22.1580 C.ar    1  UNL1        0.1991
      6 N           7.4520   -5.6350   22.6920 N.ar    1  UNL1       -0.2207
      7 C           7.7280   -4.3010   22.6080 C.ar    1  UNL1        0.1244
      8 N           7.2470   -1.3010   21.8070 N.am    1  UNL1       -0.2432
      9 C           8.5200   -1.4680   22.4410 C.ar    1  UNL1        0.0551
     10 C           8.6100   -1.4680   23.8320 C.ar    1  UNL1        0.0180
     11 C           9.8430   -1.5690   24.4490 C.ar    1  UNL1        0.0382
     12 C           9.6810   -1.5850   21.6770 C.ar    1  UNL1        0.0180
     13 C          10.9170   -1.6690   22.2960 C.ar    1  UNL1        0.0382
     14 C          10.9960   -1.6470   23.6820 C.ar    1  UNL1        0.1385
     15 O          12.1240   -1.6530   24.4770 O.3     1  UNL1       -0.4792
     16 C          13.4400   -1.8230   23.8780 C.3     1  UNL1        0.1661
     17 C          14.2730   -2.4640   24.9610 C.3     1  UNL1        0.0472
     18 C          13.9480   -0.4610   23.4790 C.3     1  UNL1        0.0472
     19 C           6.8680    0.0830   21.4180 C.3     1  UNL1        0.1820
     20 C           6.1880    0.2450   20.0670 C.ar    1  UNL1        0.0241
     21 C           6.7300   -0.2900   18.9050 C.ar    1  UNL1        0.0967
     22 N           6.3230    0.0300   17.6690 N.ar    1  UNL1       -0.2426
     23 C           5.3220    0.9100   17.5610 C.ar    1  UNL1        0.0989
     24 C           4.6870    1.4720   18.6490 C.ar    1  UNL1        0.0204
     25 C           5.1250    1.1200   19.9140 C.ar    1  UNL1        0.0010
     26 C           7.9500    1.1540   21.6450 C.2     1  UNL1        0.2642
     27 O           8.8260    1.3540   20.8120 O.2     1  UNL1       -0.2712
     28 N           7.8430    1.8460   22.7790 N.am    1  UNL1       -0.2034
     29 C           8.7840    2.9030   23.1240 C.3     1  UNL1        0.1199
     30 C          10.0580    2.3490   23.7520 C.3     1  UNL1        0.0498
     31 C          11.0370    3.4370   24.1270 C.ar    1  UNL1       -0.0182
     32 C          12.1050    3.7370   23.2890 C.ar    1  UNL1        0.0254
     33 C          12.9390    4.7770   23.6220 C.ar    1  UNL1        0.1398
     34 F          13.9860    5.0500   22.7980 F       1  UNL1       -0.2042
     35 C          12.7740    5.5460   24.7440 C.ar    1  UNL1        0.0296
     36 C          11.7190    5.2360   25.5890 C.ar    1  UNL1        0.0020
     37 C          10.8600    4.1910   25.2810 C.ar    1  UNL1       -0.0041
@<TRIPOS>BOND
     1     2     1    2
     2     3     2    1
     3     4     3   ar
     4     5     4   ar
     5     6     5   ar
     6     7     6   ar
     7     7     3   ar
     8     8     2   am
     9     9     8    1
    10    10     9   ar
    11    11    10   ar
    12    12     9   ar
    13    13    12   ar
    14    14    11   ar
    15    14    13   ar
    16    15    14    1
    17    16    15    1
    18    16    17    1
    19    18    16    1
    20    19     8    1
    21    20    19    1
    22    21    20   ar
    23    22    21   ar
    24    23    22   ar
    25    24    23   ar
    26    25    24   ar
    27    25    20   ar
    28    19    26    1
    29    27    26    2
    30    28    26   am
    31    29    28    1
    32    30    29    1
    33    31    30    1
    34    32    31   ar
    35    33    32   ar
    36    34    33    1
    37    35    33   ar
    38    36    35   ar
    39    37    36   ar
    40    37    31   ar
