@<TRIPOS>MOLECULE
*****
 24 27 0 0 0
SMALL
GASTEIGER

@<TRIPOS>ATOM
      1 CL         13.9400   -1.8090   20.9230 Cl      1  UNL1       -0.0823
      2 C          12.9630   -0.9010   22.0390 C.ar    1  UNL1        0.0576
      3 C          13.5780   -0.0540   22.9340 C.ar    1  UNL1        0.0145
      4 C          12.8020    0.6500   23.8360 C.ar    1  UNL1        0.0374
      5 C          11.5930   -1.0560   22.0040 C.ar    1  UNL1        0.0106
      6 C          10.7940   -0.3390   22.8910 C.ar    1  UNL1        0.0212
      7 C          11.4230    0.5080   23.8060 C.ar    1  UNL1        0.1350
      8 O          10.7180    1.2570   24.7140 O.3     1  UNL1       -0.4757
      9 C           9.5310    0.6070   25.1800 C.3     1  UNL1        0.2062
     10 C           8.5720    0.2930   24.0560 C.3     1  UNL1        0.0610
     11 C           9.2810   -0.4410   22.8730 C.3     1  UNL1        0.1074
     12 C           8.7990    0.1780   21.5600 C.2     1  UNL1        0.2495
     13 O           9.3510    1.1510   21.0570 O.2     1  UNL1       -0.2726
     14 N           7.6890   -0.3920   21.0360 N.am    1  UNL1       -0.1758
     15 C           6.9400    0.1400   19.9510 C.ar    1  UNL1        0.1097
     16 C           7.3760   -0.0290   18.6390 C.ar    1  UNL1        0.1170
     17 N           6.7350    0.4600   17.5750 N.ar    1  UNL1       -0.2393
     18 C           5.5970    1.1270   17.7860 C.ar    1  UNL1        0.1195
     19 C           5.7540    0.8590   20.1700 C.ar    1  UNL1        0.0976
     20 N           5.0110    1.2780   21.2660 N.ar    1  UNL1       -0.3059
     21 C           5.3070    1.0880   22.6810 C.3     1  UNL1        0.1321
     22 C           5.0560    1.3370   19.0510 C.ar    1  UNL1        0.1191
     23 N           3.8950    1.9890   19.4550 N.ar    1  UNL1       -0.2223
     24 C           3.9290    1.9260   20.7610 C.ar    1  UNL1        0.1786
@<TRIPOS>BOND
     1     2     1    1
     2     3     2   ar
     3     4     3   ar
     4     5     2   ar
     5     6     5   ar
     6     7     6   ar
     7     7     4   ar
     8     8     7    1
     9     9     8    1
    10    10     9    1
    11    11    10    1
    12    11     6    1
    13    11    12    1
    14    13    12    2
    15    14    12   am
    16    15    14    1
    17    16    15   ar
    18    17    16   ar
    19    18    17   ar
    20    19    15   ar
    21    20    19   ar
    22    21    20    1
    23    22    19   ar
    24    22    18   ar
    25    23    22   ar
    26    24    23   ar
    27    24    20   ar
