@<TRIPOS>MOLECULE
*****
 24 27 0 0 0
SMALL
GASTEIGER

@<TRIPOS>ATOM
      1 O           9.3820    1.0790   21.0210 O.2     1  UNL1       -0.2726
      2 C           8.8160    0.1300   21.5630 C.2     1  UNL1        0.2495
      3 C           9.4150   -0.5980   22.7680 C.3     1  UNL1        0.1074
      4 C          10.9060   -0.3300   22.8120 C.ar    1  UNL1        0.0212
      5 C          11.7850   -1.0250   21.9840 C.ar    1  UNL1        0.0106
      6 C           8.7570   -0.1490   24.0860 C.3     1  UNL1        0.0610
      7 C           9.2390    1.2280   24.4560 C.3     1  UNL1        0.2062
      8 O          10.6790    1.2930   24.6240 O.3     1  UNL1       -0.4757
      9 C          11.4430    0.5980   23.7160 C.ar    1  UNL1        0.1350
     10 C          12.8090    0.8360   23.7800 C.ar    1  UNL1        0.0374
     11 C          13.6640    0.1410   22.9430 C.ar    1  UNL1        0.0145
     12 C          13.1410   -0.7830   22.0610 C.ar    1  UNL1        0.0576
     13 CL         14.2140   -1.6470   20.9940 Cl      1  UNL1       -0.0823
     14 N           7.5630   -0.2410   21.2480 N.am    1  UNL1       -0.1774
     15 C           6.8270    0.0140   20.0840 C.ar    1  UNL1        0.0926
     16 C           7.2980   -0.0830   18.7750 C.ar    1  UNL1        0.1154
     17 N           6.6980    0.4160   17.6850 N.ar    1  UNL1       -0.2409
     18 C           5.5770    1.0880   17.8650 C.ar    1  UNL1        0.1005
     19 C           4.9930    1.3280   19.1300 C.ar    1  UNL1        0.0396
     20 C           5.6220    0.7590   20.2720 C.ar    1  UNL1        0.0214
     21 C           3.8860    2.1810   19.3560 C.ar    1  UNL1        0.1004
     22 N           3.4210    2.4900   20.5640 N.ar    1  UNL1       -0.2423
     23 C           4.0280    1.9380   21.6250 C.ar    1  UNL1        0.0989
     24 C           5.0900    1.0870   21.5450 C.ar    1  UNL1        0.0221
@<TRIPOS>BOND
     1     2     1    2
     2     3     2    1
     3     4     3    1
     4     5     4   ar
     5     6     3    1
     6     7     6    1
     7     8     7    1
     8     9     8    1
     9     9     4   ar
    10    10     9   ar
    11    11    10   ar
    12    12    11   ar
    13    12     5   ar
    14    13    12    1
    15    14     2   am
    16    15    14    1
    17    16    15   ar
    18    17    16   ar
    19    18    17   ar
    20    19    18   ar
    21    20    19   ar
    22    20    15   ar
    23    21    19   ar
    24    22    21   ar
    25    23    22   ar
    26    24    23   ar
    27    24    20   ar
