@<TRIPOS>MOLECULE
*****
 15 16 0 0 0
SMALL
GASTEIGER

@<TRIPOS>ATOM
      1 N          23.8450   -8.1280    3.6010 N.pl3   1  UNL1       -0.2930
      2 C          25.2160   -7.2610    5.4510 C.3     1  UNL1        0.0215
      3 C          23.7970   -7.2960    4.8390 C.3     1  UNL1        0.0743
      4 C          22.7130   -7.7560    5.8430 C.3     1  UNL1        0.0215
      5 C          24.2460   -9.5550    3.7570 C.3     1  UNL1        0.1135
      6 C          24.0580   -7.4470    2.3630 C.ar    1  UNL1        0.1379
      7 C          24.0920   -5.3990    1.1510 C.ar    1  UNL1        0.2014
      8 C          24.5560   -7.3000   -0.0240 C.ar    1  UNL1        0.1654
      9 C          25.1560   -7.8030   -2.4710 C.3     1  UNL1        0.1554
     10 C          24.6240   -9.4770    0.6690 C.ar    1  UNL1        0.1260
     11 C          24.3930   -8.1330    1.1450 C.ar    1  UNL1        0.0880
     12 N          23.9070   -6.0560    2.3480 N.ar    1  UNL1       -0.2089
     13 N          24.4130   -5.9140   -0.0610 N.ar    1  UNL1       -0.2050
     14 N          24.8660   -8.1690   -1.0730 N.ar    1  UNL1       -0.2318
     15 N          24.8990   -9.4740   -0.6480 N.ar    1  UNL1       -0.1662
@<TRIPOS>BOND
     1     3     1    1
     2     3     2    1
     3     4     3    1
     4     5     1    1
     5     6     1    1
     6    11    10   ar
     7    11     8   ar
     8    11     6   ar
     9    12     6   ar
    10    12     7   ar
    11    13     8   ar
    12    13     7   ar
    13    14     9    1
    14    14     8   ar
    15    15    14   ar
    16    15    10   ar
