@<TRIPOS>MOLECULE
*****
 23 26 0 0 0
SMALL
GASTEIGER

@<TRIPOS>ATOM
      1 O           9.1620    1.2690   21.1180 O.2     1  UNL1       -0.2742
      2 C           8.6900    0.2640   21.6230 C.2     1  UNL1        0.2330
      3 C           9.1800   -0.4420   22.8820 C.3     1  UNL1        0.1010
      4 C          10.6790   -0.2970   23.0990 C.ar    1  UNL1       -0.0130
      5 C          11.1800    0.4560   24.1560 C.ar    1  UNL1       -0.0038
      6 C          12.5460    0.6520   24.3020 C.ar    1  UNL1        0.0006
      7 C          13.4330    0.0920   23.3950 C.ar    1  UNL1        0.0114
      8 C          11.5710   -0.8780   22.2040 C.ar    1  UNL1        0.0076
      9 C          12.9280   -0.6710   22.3610 C.ar    1  UNL1        0.0574
     10 CL         14.0240   -1.3680   21.2010 Cl      1  UNL1       -0.0823
     11 N           7.6130   -0.4400   21.1540 N.am    1  UNL1       -0.2569
     12 C           7.3760   -1.6920   21.8990 C.3     1  UNL1        0.0991
     13 C           8.6870   -1.8970   22.6480 C.3     1  UNL1        0.0354
     14 C           6.7580   -0.0260   20.0790 C.ar    1  UNL1        0.0730
     15 C           5.6030    0.7780   20.3310 C.ar    1  UNL1        0.0167
     16 C           5.1420    1.1220   21.6310 C.ar    1  UNL1        0.0013
     17 C           4.0630    1.9420   21.8000 C.ar    1  UNL1        0.0000
     18 C           3.3860    2.4590   20.7010 C.ar    1  UNL1        0.0001
     19 C           3.7790    2.1440   19.4290 C.ar    1  UNL1        0.0016
     20 C           4.8940    1.2940   19.2090 C.ar    1  UNL1        0.0204
     21 C           5.3640    0.9530   17.9130 C.ar    1  UNL1        0.0989
     22 N           6.4220    0.1850   17.6850 N.ar    1  UNL1       -0.2410
     23 C           7.0830   -0.2840   18.7510 C.ar    1  UNL1        0.1137
@<TRIPOS>BOND
     1     2     1    2
     2     3     2    1
     3     3     4    1
     4     5     4   ar
     5     6     5   ar
     6     7     6   ar
     7     8     4   ar
     8     9     8   ar
     9     9     7   ar
    10    10     9    1
    11    11     2   am
    12    12    11    1
    13    13    12    1
    14    13     3    1
    15    14    11    1
    16    15    14   ar
    17    16    15   ar
    18    17    16   ar
    19    18    17   ar
    20    19    18   ar
    21    20    19   ar
    22    20    15   ar
    23    21    20   ar
    24    22    21   ar
    25    23    22   ar
    26    23    14   ar
