@<TRIPOS>MOLECULE
*****
 30 33 0 0 0
SMALL
GASTEIGER

@<TRIPOS>ATOM
      1 O           8.9890    1.5580   21.1210 O.2     1  UNL1       -0.2723
      2 C           8.8210    0.5050   21.7120 C.2     1  UNL1        0.2545
      3 C           8.1010   -0.6670   21.0380 C.3     1  UNL1        0.2141
      4 N           7.2310   -0.2110   19.9730 N.ar    1  UNL1       -0.2223
      5 C           6.0700    0.4980   20.0480 C.ar    1  UNL1        0.0994
      6 C           5.2410    0.8730   21.0950 C.ar    1  UNL1        0.0204
      7 C           4.1140    1.6210   20.7860 C.ar    1  UNL1        0.0016
      8 C           3.8340    1.9880   19.4680 C.ar    1  UNL1        0.0017
      9 C           4.6720    1.6070   18.4260 C.ar    1  UNL1        0.0225
     10 C           5.7960    0.8420   18.7260 C.ar    1  UNL1        0.1217
     11 N           6.7770    0.3080   17.9210 N.ar    1  UNL1       -0.1288
     12 N           7.6220   -0.3300   18.6790 N.ar    1  UNL1       -0.0634
     13 N           9.2460    0.3180   22.9960 N.am    1  UNL1       -0.2527
     14 C           9.2250   -0.9400   23.6720 C.ar    1  UNL1        0.0543
     15 C           8.2880   -1.1920   24.6710 C.ar    1  UNL1        0.0162
     16 C           8.2620   -2.4190   25.3120 C.ar    1  UNL1        0.0158
     17 C          10.1400   -1.9240   23.3310 C.ar    1  UNL1        0.0162
     18 C          10.1130   -3.1520   23.9630 C.ar    1  UNL1        0.0158
     19 C           9.1720   -3.4290   24.9640 C.ar    1  UNL1        0.0480
     20 N           9.1410   -4.6620   25.5830 N.pl3   1  UNL1       -0.3041
     21 C           9.7480   -5.8200   24.9530 C.3     1  UNL1        0.1122
     22 C           8.1560   -4.9730   26.6080 C.3     1  UNL1        0.1122
     23 C           9.7700    1.4750   23.7400 C.3     1  UNL1        0.1248
     24 C          11.2320    1.7480   23.4840 C.ar    1  UNL1       -0.0012
     25 C          11.6350    2.9040   22.8210 C.ar    1  UNL1        0.0088
     26 C          12.9650    3.0620   22.4700 C.ar    1  UNL1        0.0574
     27 CL         13.4700    4.5370   21.6900 Cl      1  UNL1       -0.0823
     28 C          13.9060    2.0950   22.7470 C.ar    1  UNL1        0.0114
     29 C          13.5130    0.9630   23.4370 C.ar    1  UNL1        0.0006
     30 C          12.1900    0.8000   23.8140 C.ar    1  UNL1       -0.0025
@<TRIPOS>BOND
     1     2     1    2
     2     3     2    1
     3     4     3    1
     4     5     4   ar
     5     6     5   ar
     6     7     6   ar
     7     8     7   ar
     8     9     8   ar
     9    10     9   ar
    10    10     5   ar
    11    11    10   ar
    12    12    11   ar
    13    12     4   ar
    14    13     2   am
    15    14    13    1
    16    15    14   ar
    17    16    15   ar
    18    17    14   ar
    19    18    17   ar
    20    19    18   ar
    21    19    16   ar
    22    20    19    1
    23    21    20    1
    24    22    20    1
    25    23    13    1
    26    24    23    1
    27    25    24   ar
    28    26    25   ar
    29    27    26    1
    30    28    26   ar
    31    29    28   ar
    32    30    29   ar
    33    30    24   ar
