@<TRIPOS>MOLECULE
*****
 33 35 0 0 0
SMALL
GASTEIGER

@<TRIPOS>ATOM
      1 O           9.3800    1.4240   21.1060 O.2     1  UNL1       -0.2708
      2 C           8.3210    1.4150   21.7280 C.2     1  UNL1        0.2684
      3 C           7.2770    0.3160   21.4760 C.3     1  UNL1        0.1833
      4 C           6.5870    0.4900   20.1330 C.ar    1  UNL1        0.0241
      5 C           5.3790    1.1640   20.0390 C.ar    1  UNL1        0.0010
      6 C           4.8530    1.4820   18.8010 C.ar    1  UNL1        0.0204
      7 C           5.5590    1.0960   17.6760 C.ar    1  UNL1        0.0989
      8 N           6.7170    0.4280   17.7270 N.ar    1  UNL1       -0.2426
      9 C           7.2020    0.1360   18.9390 C.ar    1  UNL1        0.0967
     10 N           7.7550   -1.0620   21.7610 N.am    1  UNL1       -0.2302
     11 C           8.9290   -1.2390   22.5700 C.ar    1  UNL1        0.1798
     12 C          10.2900   -1.2880   22.1530 C.ar    1  UNL1        0.0736
     13 C          10.9990   -1.3790   23.2860 C.ar    1  UNL1        0.1549
     14 C          12.5030   -1.4280   23.4820 C.3     1  UNL1        0.0539
     15 C          12.8670   -2.4750   24.5340 C.3     1  UNL1        0.0076
     16 C          13.1840   -1.7800   22.1590 C.3     1  UNL1        0.0076
     17 C          13.0060   -0.0690   23.9660 C.3     1  UNL1        0.0076
     18 O          10.1860   -1.4030   24.3610 O.2     1  UNL1       -0.3565
     19 N           8.8360   -1.3150   23.9200 N.ar    1  UNL1       -0.0618
     20 C           7.0280   -2.1900   21.3580 C.2     1  UNL1        0.2310
     21 O           5.8170   -2.0960   21.2270 O.2     1  UNL1       -0.2745
     22 C           7.7570   -3.4900   21.1380 C.3     1  UNL1        0.0857
     23 C           7.0890   -4.3680   20.0870 C.3     1  UNL1        0.0101
     24 N           7.9610    2.3580   22.6300 N.am    1  UNL1       -0.1778
     25 C           8.7460    3.4520   23.0660 C.ar    1  UNL1        0.0696
     26 C           8.4700    4.7440   22.6210 C.ar    1  UNL1        0.0194
     27 C           9.2510    5.8020   23.0520 C.ar    1  UNL1        0.0382
     28 C          10.3010    5.5730   23.9270 C.ar    1  UNL1        0.1385
     29 O          10.9890    6.6970   24.3020 O.3     1  UNL1       -0.4714
     30 C          12.0770    6.5700   25.2240 C.3     1  UNL1        0.2525
     31 C          10.5840    4.2890   24.3680 C.ar    1  UNL1        0.0339
     32 C           9.8070    3.2110   23.9600 C.ar    1  UNL1       -0.0035
     33 C          10.0670    1.8440   24.5440 C.3     1  UNL1        0.0325
@<TRIPOS>BOND
     1     2     1    2
     2     3     2    1
     3     4     3    1
     4     5     4   ar
     5     6     5   ar
     6     7     6   ar
     7     8     7   ar
     8     9     8   ar
     9     9     4   ar
    10    10     3    1
    11    11    10    1
    12    12    11   ar
    13    13    12   ar
    14    14    13    1
    15    14    15    1
    16    16    14    1
    17    17    14    1
    18    18    13   ar
    19    19    18   ar
    20    19    11   ar
    21    20    10   am
    22    21    20    2
    23    22    20    1
    24    23    22    1
    25    24     2   am
    26    25    24    1
    27    26    25   ar
    28    27    26   ar
    29    28    27   ar
    30    29    28    1
    31    30    29    1
    32    31    28   ar
    33    32    31   ar
    34    32    25   ar
    35    33    32    1
