@<TRIPOS>MOLECULE
*****
 27 30 0 0 0
SMALL
GASTEIGER

@<TRIPOS>ATOM
      1 S          13.6210   -0.7860   21.8860 S.2     1  UNL1       -0.0862
      2 N           8.8170   -4.9500   26.0080 N.pl3   1  UNL1       -0.2357
      3 N           7.5810   -0.4760   18.8190 N.ar    1  UNL1       -0.0634
      4 N           7.1090   -0.4200   20.0900 N.ar    1  UNL1       -0.2223
      5 C           8.9280   -3.7760   25.2850 C.ar    1  UNL1        0.0655
      6 C          11.9600   -0.5540   22.1690 C.ar    1  UNL1        0.0328
      7 C           5.1930    0.8200   21.1830 C.ar    1  UNL1        0.0204
      8 C          11.7080    0.3670   23.1480 C.ar    1  UNL1        0.0050
      9 C           8.0670   -2.7000   25.5150 C.ar    1  UNL1        0.0174
     10 C           9.8600   -3.6930   24.2570 C.ar    1  UNL1        0.0174
     11 C           3.9230    2.0660   19.5380 C.ar    1  UNL1        0.0017
     12 C           9.9310   -2.5590   23.4680 C.ar    1  UNL1        0.0162
     13 C           9.0980   -1.4700   23.7120 C.ar    1  UNL1        0.0543
     14 C          14.0270    0.3850   23.1040 C.ar    1  UNL1        0.0352
     15 C           7.9000   -0.9910   21.1560 C.3     1  UNL1        0.2141
     16 C           4.1330    1.6570   20.8540 C.ar    1  UNL1        0.0016
     17 C          12.9090    0.9080   23.6820 C.ar    1  UNL1        0.0049
     18 C           8.8060    0.0600   21.7890 C.2     1  UNL1        0.2545
     19 C           6.0280    0.4050   20.1520 C.ar    1  UNL1        0.0994
     20 C           5.8430    0.8240   18.8390 C.ar    1  UNL1        0.1217
     21 C           7.7730   -5.2190   26.9710 C.3     1  UNL1        0.1355
     22 N           9.3290   -0.2380   23.0150 N.am    1  UNL1       -0.2527
     23 O           9.0610    1.0990   21.1940 O.2     1  UNL1       -0.2723
     24 C          10.3000    0.6920   23.5790 C.3     1  UNL1        0.1253
     25 C           8.1500   -1.5570   24.7330 C.ar    1  UNL1        0.0162
     26 C           4.7800    1.6640   18.5200 C.ar    1  UNL1        0.0225
     27 N           6.8280    0.2650   18.0560 N.ar    1  UNL1       -0.1288
@<TRIPOS>BOND
     1     4     3   ar
     2     5     2    1
     3     6     1   ar
     4     8     6   ar
     5     9     5   ar
     6    10     5   ar
     7    12    10   ar
     8    13    12   ar
     9    14     1   ar
    10    15     4    1
    11    16    11   ar
    12    16     7   ar
    13    17    14   ar
    14    17     8   ar
    15    18    15    1
    16    19     7   ar
    17    19     4   ar
    18    20    19   ar
    19    21     2    1
    20    22    18   am
    21    22    13    1
    22    23    18    2
    23    24    22    1
    24    24     8    1
    25    25    13   ar
    26    25     9   ar
    27    26    11   ar
    28    26    20   ar
    29    27    20   ar
    30    27     3   ar
