@<TRIPOS>MOLECULE
*****
 26 28 0 0 0
SMALL
GASTEIGER

@<TRIPOS>ATOM
      1 N           8.4020   -0.1940   21.9590 N.am    1  UNL1       -0.2001
      2 C           4.8190   -0.1120   21.5820 C.ar    1  UNL1        0.0271
      3 C           8.5820   -0.0950   24.4200 C.3     1  UNL1        0.1683
      4 C          11.2400   -0.4810   22.5010 C.ar    1  UNL1        0.0042
      5 O           8.2460    1.6140   20.6320 O.2     1  UNL1       -0.2733
      6 C           3.5410    2.1500   20.5470 C.ar    1  UNL1        0.0186
      7 C           8.9940    0.5140   23.0890 C.3     1  UNL1        0.1470
      8 C           6.1000    0.9890   18.2450 C.2     1  UNL1        0.2497
      9 C          13.2780    0.8030   22.6910 C.ar    1  UNL1        0.0067
     10 C           6.1470   -0.1260   19.2840 C.3     1  UNL1        0.1112
     11 C           7.5750   -0.4900   19.7100 C.3     1  UNL1        0.1004
     12 C           3.8100    0.5330   22.2580 C.ar    1  UNL1        0.1399
     13 C          10.5040    0.5980   22.9840 C.ar    1  UNL1        0.0004
     14 C          12.6110   -0.3570   22.3570 C.ar    1  UNL1        0.0343
     15 C           3.1580    1.6410   21.7760 C.ar    1  UNL1        0.0310
     16 F           3.4280    0.0320   23.4640 F       1  UNL1       -0.2042
     17 C           5.1910    0.3810   20.3340 C.ar    1  UNL1        0.0043
     18 C          11.1670    1.7710   23.3200 C.ar    1  UNL1       -0.0025
     19 C           6.5220    1.0120   24.8390 C.3     1  UNL1        0.1742
     20 N           5.1350    1.8660   18.6150 N.am    1  UNL1       -0.1792
     21 O           7.1740   -0.2120   24.5160 O.3     1  UNL1       -0.3489
     22 O           6.8390    1.1000   17.2730 O.2     1  UNL1       -0.2726
     23 C           4.5610    1.5200   19.8380 C.ar    1  UNL1        0.0700
     24 C           8.0960    0.4080   20.8070 C.2     1  UNL1        0.2425
     25 BR         13.5980   -1.8140   21.6420 Br      1  UNL1       -0.0490
     26 C          12.5400    1.8760   23.1700 C.ar    1  UNL1        0.0002
@<TRIPOS>BOND
     1     7     3    1
     2     7     1    1
     3    10     8    1
     4    10    11    1
     5    12     2   ar
     6    13     7    1
     7    13     4   ar
     8    14     9   ar
     9    14     4   ar
    10    15     6   ar
    11    15    12   ar
    12    16    12    1
    13    17     2   ar
    14    17    10    1
    15    18    13   ar
    16    20     8   am
    17    21    19    1
    18    21     3    1
    19    22     8    2
    20    23    20    1
    21    23    17   ar
    22    23     6   ar
    23    24    11    1
    24    24     5    2
    25    24     1   am
    26    25    14    1
    27    26    18   ar
    28    26     9   ar
