@<TRIPOS>MOLECULE
*****
 19 20 0 0 0
SMALL
GASTEIGER

@<TRIPOS>ATOM
      1 N           6.4770    0.5540   17.5370 N.ar    1  UNL1       -0.2249
      2 N           7.3750   -0.4700   20.9740 N.am    1  UNL1       -0.1763
      3 C           5.5760    0.9570   20.1520 C.ar    1  UNL1       -0.0021
      4 C          13.2770   -0.1690   23.0970 C.ar    1  UNL1        0.0114
      5 C          10.5210   -0.5870   22.8880 C.ar    1  UNL1       -0.0122
      6 C           4.9320    1.5390   19.0670 C.ar    1  UNL1        0.0178
      7 C           8.5280    0.0090   21.4820 C.2     1  UNL1        0.2501
      8 C           6.6860    0.1420   19.8980 C.ar    1  UNL1        0.1041
      9 C           7.1230   -0.0490   18.5650 C.ar    1  UNL1        0.1848
     10 C          12.4100    0.4250   23.9990 C.ar    1  UNL1        0.0006
     11 C          11.3970   -1.2040   22.0020 C.ar    1  UNL1        0.0076
     12 C          11.0430    0.2090   23.9000 C.ar    1  UNL1       -0.0037
     13 C          12.7550   -1.0030   22.1310 C.ar    1  UNL1        0.0574
     14 C           5.0830    1.2080   21.5550 C.3     1  UNL1        0.0325
     15 N           8.1820   -0.8110   18.2760 N.pl3   1  UNL1       -0.1058
     16 O           9.1170    0.9840   21.0240 O.2     1  UNL1       -0.2726
     17 C           9.0300   -0.7370   22.7030 C.3     1  UNL1        0.1135
     18 C           5.4060    1.3120   17.7980 C.ar    1  UNL1        0.1002
     19 CL         13.8360   -1.9150   21.1160 Cl      1  UNL1       -0.0823
@<TRIPOS>BOND
     1     6     3   ar
     2     7     2   am
     3     8     3   ar
     4     8     2    1
     5     9     8   ar
     6     9     1   ar
     7    10     4   ar
     8    11     5   ar
     9    12     5   ar
    10    12    10   ar
    11    13    11   ar
    12    13     4   ar
    13    14     3    1
    14    15     9    1
    15    16     7    2
    16    17     7    1
    17    17     5    1
    18    18     6   ar
    19    18     1   ar
    20    19    13    1
