@<TRIPOS>MOLECULE
*****
 21 23 0 0 0
SMALL
GASTEIGER

@<TRIPOS>ATOM
      1 O           9.0090    0.8420   21.0820 O.2     1  UNL1       -0.2726
      2 C           8.4650   -0.1890   21.4770 C.2     1  UNL1        0.2500
      3 C           9.0580   -1.0440   22.5780 C.3     1  UNL1        0.1135
      4 C          10.5110   -0.7280   22.8430 C.ar    1  UNL1       -0.0129
      5 C          11.5170   -1.4120   22.1770 C.ar    1  UNL1       -0.0015
      6 C          12.8510   -1.1230   22.4030 C.ar    1  UNL1        0.0293
      7 C          10.8700    0.2580   23.7540 C.ar    1  UNL1       -0.0015
      8 C          12.1990    0.5600   23.9950 C.ar    1  UNL1        0.0293
      9 C          13.1560   -0.1460   23.3140 C.ar    1  UNL1        0.1401
     10 F          14.4620    0.0890   23.6000 F       1  UNL1       -0.2042
     11 N           7.3040   -0.6570   20.9790 N.am    1  UNL1       -0.1773
     12 C           6.5610   -0.1220   19.9170 C.ar    1  UNL1        0.0925
     13 C           5.4510    0.7250   20.2200 C.ar    1  UNL1        0.0184
     14 C           4.9700    0.9580   21.5370 C.ar    1  UNL1        0.0014
     15 C           3.9140    1.7960   21.7610 C.ar    1  UNL1        0.0000
     16 C           3.2830    2.4380   20.7020 C.ar    1  UNL1        0.0001
     17 C           3.7020    2.2370   19.4180 C.ar    1  UNL1        0.0016
     18 C           4.7940    1.3760   19.1410 C.ar    1  UNL1        0.0204
     19 C           5.2790    1.1330   17.8320 C.ar    1  UNL1        0.0989
     20 N           6.3040    0.3380   17.5510 N.ar    1  UNL1       -0.2410
     21 C           6.9160   -0.2700   18.5760 C.ar    1  UNL1        0.1154
@<TRIPOS>BOND
     1     2     1    2
     2     3     2    1
     3     4     3    1
     4     5     4   ar
     5     6     5   ar
     6     7     4   ar
     7     8     7   ar
     8     9     8   ar
     9     9     6   ar
    10    10     9    1
    11    11     2   am
    12    12    11    1
    13    13    12   ar
    14    14    13   ar
    15    15    14   ar
    16    16    15   ar
    17    17    16   ar
    18    18    17   ar
    19    18    13   ar
    20    19    18   ar
    21    20    19   ar
    22    21    20   ar
    23    21    12   ar
