@<TRIPOS>MOLECULE
*****
 18 19 0 0 0
SMALL
GASTEIGER

@<TRIPOS>ATOM
      1 N          14.5580   -2.1150   20.5300 N.1     1  UNL1       -0.1908
      2 C          13.8340   -1.5550   21.2100 C.1     1  UNL1        0.1020
      3 C          12.8780   -0.8720   22.0400 C.ar    1  UNL1        0.0889
      4 C          13.2570    0.1460   22.9130 C.ar    1  UNL1        0.1092
      5 N          12.3840    0.8460   23.6490 N.ar    1  UNL1       -0.2403
      6 C          11.0800    0.5560   23.5060 C.ar    1  UNL1        0.1154
      7 C          11.5240   -1.1660   21.9210 C.ar    1  UNL1        0.0300
      8 C          10.5960   -0.4240   22.6350 C.ar    1  UNL1        0.0932
      9 N           9.2410   -0.6320   22.3060 N.am    1  UNL1       -0.1773
     10 C           8.5330    0.0330   21.3740 C.2     1  UNL1        0.2501
     11 O           8.9350    1.0520   20.8190 O.2     1  UNL1       -0.2726
     12 C           7.1850   -0.5780   21.0460 C.3     1  UNL1        0.1150
     13 C           6.5330    0.1090   19.8680 C.ar    1  UNL1        0.0062
     14 C           7.0060   -0.0800   18.5800 C.ar    1  UNL1        0.0951
     15 N           6.4810    0.5050   17.4970 N.ar    1  UNL1       -0.2426
     16 C           5.4350    1.3220   17.6830 C.ar    1  UNL1        0.0989
     17 C           4.8890    1.5820   18.9260 C.ar    1  UNL1        0.0204
     18 C           5.4480    0.9590   20.0270 C.ar    1  UNL1       -0.0007
@<TRIPOS>BOND
     1     2     1    3
     2     3     2    1
     3     4     3   ar
     4     5     4   ar
     5     6     5   ar
     6     7     3   ar
     7     8     7   ar
     8     8     6   ar
     9     9     8    1
    10    10     9   am
    11    11    10    2
    12    12    10    1
    13    13    12    1
    14    14    13   ar
    15    15    14   ar
    16    16    15   ar
    17    17    16   ar
    18    18    17   ar
    19    18    13   ar
