@<TRIPOS>MOLECULE
*****
 16 17 0 0 0
SMALL
GASTEIGER

@<TRIPOS>ATOM
      1 O           9.3540    0.8930   20.8550 O.2     1  UNL1       -0.2726
      2 C           8.6500    0.0240   21.3600 C.2     1  UNL1        0.2501
      3 C           9.1200   -0.8120   22.5320 C.3     1  UNL1        0.1135
      4 C          10.5920   -0.5690   22.7600 C.ar    1  UNL1       -0.0122
      5 C          11.0280    0.4040   23.6500 C.ar    1  UNL1       -0.0037
      6 C          12.3710    0.7430   23.7300 C.ar    1  UNL1        0.0006
      7 C          13.3010    0.0980   22.9300 C.ar    1  UNL1        0.0114
      8 C          11.5310   -1.2370   21.9830 C.ar    1  UNL1        0.0076
      9 C          12.8640   -0.8990   22.0810 C.ar    1  UNL1        0.0574
     10 CL         14.0280   -1.8200   21.1760 Cl      1  UNL1       -0.0823
     11 N           7.3450   -0.1530   21.0040 N.am    1  UNL1       -0.1756
     12 C           6.8280    0.1540   19.7330 C.ar    1  UNL1        0.1152
     13 C           5.5280    0.2080   19.3310 C.ar    1  UNL1        0.1403
     14 N           5.5210    0.4560   18.0180 N.ar    1  UNL1       -0.1449
     15 N           6.7720    0.5270   17.5190 N.ar    1  UNL1       -0.1449
     16 C           7.5710    0.3360   18.5620 C.ar    1  UNL1        0.1403
@<TRIPOS>BOND
     1     2     1    2
     2     3     2    1
     3     4     3    1
     4     5     4   ar
     5     6     5   ar
     6     7     6   ar
     7     8     4   ar
     8     9     8   ar
     9     9     7   ar
    10    10     9    1
    11    11     2   am
    12    12    11    1
    13    13    12   ar
    14    14    13   ar
    15    15    14   ar
    16    16    15   ar
    17    16    12   ar
