@<TRIPOS>MOLECULE
*****
 22 24 0 0 0
SMALL
GASTEIGER

@<TRIPOS>ATOM
      1 CL         13.9560   -1.7520   21.3210 Cl      1  UNL1       -0.0823
      2 C          12.7150   -0.9140   22.2000 C.ar    1  UNL1        0.0574
      3 C          13.0670    0.1170   23.0420 C.ar    1  UNL1        0.0114
      4 C          12.0730    0.7340   23.7810 C.ar    1  UNL1        0.0006
      5 C          10.7540    0.3310   23.6530 C.ar    1  UNL1       -0.0037
      6 C          11.4060   -1.3130   22.0440 C.ar    1  UNL1        0.0076
      7 C          10.4050   -0.6860   22.7770 C.ar    1  UNL1       -0.0122
      8 C           8.9620   -1.0810   22.5850 C.3     1  UNL1        0.1119
      9 C           8.3460   -0.3060   21.4360 C.2     1  UNL1        0.2339
     10 O           8.8810    0.7240   21.0340 O.2     1  UNL1       -0.2742
     11 N           7.1920   -0.7530   20.8920 N.am    1  UNL1       -0.2552
     12 C           6.5830   -1.9930   21.3760 C.3     1  UNL1        0.1201
     13 C           6.5430   -0.0840   19.8150 C.ar    1  UNL1        0.0731
     14 C           5.4240    0.7290   20.1040 C.ar    1  UNL1        0.0167
     15 C           4.8990    0.9190   21.4050 C.ar    1  UNL1        0.0013
     16 C           3.7910    1.6900   21.6070 C.ar    1  UNL1        0.0000
     17 C           3.1620    2.3180   20.5380 C.ar    1  UNL1        0.0001
     18 C           3.6410    2.1790   19.2680 C.ar    1  UNL1        0.0016
     19 C           4.7830    1.3770   19.0170 C.ar    1  UNL1        0.0204
     20 C           5.3150    1.1650   17.7220 C.ar    1  UNL1        0.0989
     21 N           6.3740    0.3990   17.4660 N.ar    1  UNL1       -0.2410
     22 C           6.9670   -0.2030   18.5000 C.ar    1  UNL1        0.1137
@<TRIPOS>BOND
     1     2     1    1
     2     3     2   ar
     3     4     3   ar
     4     5     4   ar
     5     6     2   ar
     6     7     5   ar
     7     7     6   ar
     8     8     7    1
     9     9     8    1
    10    10     9    2
    11    11     9   am
    12    12    11    1
    13    13    11    1
    14    14    13   ar
    15    15    14   ar
    16    16    15   ar
    17    17    16   ar
    18    18    17   ar
    19    19    18   ar
    20    19    14   ar
    21    20    19   ar
    22    21    20   ar
    23    22    21   ar
    24    22    13   ar
