@<TRIPOS>MOLECULE
*****
 32 36 0 0 0
SMALL
GASTEIGER

@<TRIPOS>ATOM
      1 O           7.3630    2.3970   25.7230 O.2     1  UNL1       -0.1498
      2 S           6.9060    1.0890   25.3620 S.O2    1  UNL1        0.0978
      3 O           5.7090    0.9370   24.5950 O.2     1  UNL1       -0.1498
      4 C           6.8280    0.1610   26.7810 C.ar    1  UNL1        0.2894
      5 N           6.1670   -1.0000   26.9690 N.ar    1  UNL1       -0.2065
      6 C           6.4240   -1.4210   28.2420 C.ar    1  UNL1        0.1226
      7 C           7.2380   -0.4820   28.7870 C.ar    1  UNL1        0.1226
      8 N           7.4870    0.5130   27.8680 N.ar    1  UNL1       -0.2065
      9 N           8.1240    0.4280   24.5030 N.3     1  UNL1       -0.1474
     10 C           9.4850    0.7480   24.9560 C.3     1  UNL1        0.1219
     11 C           7.9450   -0.9410   23.9830 C.3     1  UNL1        0.1098
     12 C           8.7750   -1.0690   22.7060 C.3     1  UNL1        0.1182
     13 C          10.2200   -0.6920   22.9770 C.ar    1  UNL1       -0.0142
     14 C          10.5330    0.2140   24.0050 C.ar    1  UNL1       -0.0079
     15 C          11.8660    0.5750   24.2060 C.ar    1  UNL1       -0.0023
     16 C          12.8780    0.0310   23.4370 C.ar    1  UNL1        0.0111
     17 C          11.2460   -1.2400   22.2080 C.ar    1  UNL1        0.0074
     18 C          12.5550   -0.8760   22.4540 C.ar    1  UNL1        0.0574
     19 CL         13.8250   -1.5910   21.5010 Cl      1  UNL1       -0.0823
     20 C           8.2360   -0.1390   21.6170 C.2     1  UNL1        0.2507
     21 O           8.4450    1.0720   21.6290 O.2     1  UNL1       -0.2726
     22 N           7.5080   -0.7550   20.6630 N.am    1  UNL1       -0.1773
     23 C           6.5900   -0.2550   19.7150 C.ar    1  UNL1        0.0925
     24 C           5.6080    0.7320   20.0630 C.ar    1  UNL1        0.0184
     25 C           5.1250    0.9310   21.3820 C.ar    1  UNL1        0.0014
     26 C           4.0730    1.7680   21.6330 C.ar    1  UNL1        0.0000
     27 C           3.4600    2.4620   20.5980 C.ar    1  UNL1        0.0001
     28 C           3.8920    2.3160   19.3120 C.ar    1  UNL1        0.0016
     29 C           4.9670    1.4440   19.0060 C.ar    1  UNL1        0.0204
     30 C           5.3550    1.1460   17.6800 C.ar    1  UNL1        0.0989
     31 N           6.2420    0.2240   17.3550 N.ar    1  UNL1       -0.2410
     32 C           6.8200   -0.4550   18.3530 C.ar    1  UNL1        0.1154
@<TRIPOS>BOND
     1     2     1    2
     2     3     2    2
     3     2     4    1
     4     5     4   ar
     5     6     5   ar
     6     7     6   ar
     7     8     4   ar
     8     8     7   ar
     9     9     2    1
    10    10     9    1
    11    11     9    1
    12    12    11    1
    13    13    12    1
    14    14    13   ar
    15    14    10    1
    16    15    14   ar
    17    16    15   ar
    18    17    13   ar
    19    18    17   ar
    20    18    16   ar
    21    19    18    1
    22    12    20    1
    23    21    20    2
    24    22    20   am
    25    23    22    1
    26    24    23   ar
    27    25    24   ar
    28    26    25   ar
    29    27    26   ar
    30    28    27   ar
    31    29    28   ar
    32    29    24   ar
    33    30    29   ar
    34    31    30   ar
    35    32    31   ar
    36    32    23   ar
