@<TRIPOS>MOLECULE
*****
 22 24 0 0 0
SMALL
GASTEIGER

@<TRIPOS>ATOM
      1 O           9.5680    1.0210   21.1030 O.2     1  UNL1       -0.2715
      2 C           9.2840   -0.1500   21.3370 C.2     1  UNL1        0.2620
      3 N           8.1850   -0.7760   20.8550 N.am    1  UNL1       -0.1768
      4 C           7.2370   -0.2040   19.9740 C.ar    1  UNL1        0.0885
      5 C           6.0400    0.3280   20.4710 C.ar    1  UNL1       -0.0041
      6 C           5.6490    0.2180   21.9370 C.3     1  UNL1        0.0237
      7 C           4.6350    1.1530   22.5260 C.3     1  UNL1        0.0047
      8 C           6.0500    1.2590   22.9430 C.3     1  UNL1        0.0047
      9 C           5.1780    0.9470   19.5710 C.ar    1  UNL1        0.0177
     10 C           5.5200    0.9920   18.2350 C.ar    1  UNL1        0.0987
     11 N           6.6510    0.4830   17.7420 N.ar    1  UNL1       -0.2410
     12 C           7.4880   -0.1040   18.6050 C.ar    1  UNL1        0.1151
     13 C          10.1740   -1.0210   22.2060 C.3     1  UNL1        0.1606
     14 N           9.4200   -1.8850   23.1070 N.3     1  UNL1       -0.2620
     15 C           8.6560   -1.1020   24.0830 C.3     1  UNL1        0.0943
     16 C           7.7480   -2.0170   24.8770 C.3     1  UNL1        0.1107
     17 C          10.2960   -2.8190   23.8210 C.3     1  UNL1        0.0943
     18 C           9.4630   -3.7990   24.6370 C.3     1  UNL1        0.1107
     19 N           8.5370   -3.0750   25.5230 N.am    1  UNL1       -0.2767
     20 C           8.3520   -3.3240   26.8390 C.2     1  UNL1        0.2262
     21 O           7.9900   -2.4340   27.5950 O.2     1  UNL1       -0.2749
     22 C           8.5420   -4.7300   27.3250 C.3     1  UNL1        0.0948
@<TRIPOS>BOND
     1     2     1    2
     2     3     2   am
     3     4     3    1
     4     5     4   ar
     5     6     5    1
     6     7     6    1
     7     8     7    1
     8     8     6    1
     9     9     5   ar
    10    10     9   ar
    11    11    10   ar
    12    12    11   ar
    13    12     4   ar
    14    13     2    1
    15    14    13    1
    16    15    14    1
    17    16    15    1
    18    17    14    1
    19    18    17    1
    20    19    18    1
    21    19    16    1
    22    20    19   am
    23    21    20    2
    24    22    20    1
