
     RDKit          3D

 26 29  0  0  0  0  0  0  0  0999 V2000
  -19.3380    4.8370   29.4650 O   0  0  0  0  0  0  0  0  0  0  0  0
  -20.2910    4.9860   28.7150 C   0  0  0  0  0  0  0  0  0  0  0  0
  -21.7310    5.1740   29.2950 C   0  0  1  0  0  0  0  0  0  0  0  0
  -22.0080    4.3450   30.5340 C   0  0  0  0  0  0  0  0  0  0  0  0
  -21.7090    2.9830   30.5710 C   0  0  0  0  0  0  0  0  0  0  0  0
  -21.9040    2.2760   31.7440 C   0  0  0  0  0  0  0  0  0  0  0  0
  -21.6160    0.5590   31.7490 Cl  0  0  0  0  0  0  0  0  0  0  0  0
  -22.3510    2.8820   32.8960 C   0  0  0  0  0  0  0  0  0  0  0  0
  -22.6500    4.2310   32.8790 C   0  0  0  0  0  0  0  0  0  0  0  0
  -22.4920    4.9490   31.7060 C   0  0  0  0  0  0  0  0  0  0  0  0
  -22.8610    6.2710   31.7770 O   0  0  0  0  0  0  0  0  0  0  0  0
  -23.0250    6.9370   30.5100 C   0  0  0  0  0  0  0  0  0  0  0  0
  -21.8510    6.6740   29.5930 C   0  0  0  0  0  0  0  0  0  0  0  0
  -22.6220    4.9940   28.1840 O   0  0  0  0  0  0  0  0  0  0  0  0
  -23.1970    3.6960   27.9920 C   0  0  0  0  0  0  0  0  0  0  0  0
  -20.1560    5.0490   27.3710 N   0  0  0  0  0  0  0  0  0  0  0  0
  -18.9350    5.0150   26.6550 C   0  0  0  0  0  0  0  0  0  0  0  0
  -18.4220    6.2410   26.1290 C   0  0  0  0  0  0  0  0  0  0  0  0
  -19.0810    7.4910   26.2610 C   0  0  0  0  0  0  0  0  0  0  0  0
  -18.5060    8.6390   25.8000 C   0  0  0  0  0  0  0  0  0  0  0  0
  -17.2680    8.6110   25.1780 C   0  0  0  0  0  0  0  0  0  0  0  0
  -16.5920    7.4340   25.0240 C   0  0  0  0  0  0  0  0  0  0  0  0
  -17.1430    6.2200   25.5030 C   0  0  0  0  0  0  0  0  0  0  0  0
  -16.4540    4.9840   25.4490 C   0  0  0  0  0  0  0  0  0  0  0  0
  -16.9280    3.8490   25.9340 N   0  0  0  0  0  0  0  0  0  0  0  0
  -18.1380    3.8780   26.5080 C   0  0  0  0  0  0  0  0  0  0  0  0
  2  1  2  0
  3  2  1  0
  4  3  1  0
  5  4  2  0
  6  5  1  0
  7  6  1  0
  8  6  2  0
  9  8  1  0
 10  4  1  0
 10  9  2  0
 11 10  1  0
 12 11  1  0
 13 12  1  0
 13  3  1  0
  3 14  1  6
 15 14  1  0
 16  2  1  0
 17 16  1  0
 18 17  1  0
 19 18  2  0
 20 19  1  0
 21 20  2  0
 22 21  1  0
 23 22  2  0
 23 18  1  0
 24 23  1  0
 25 24  2  0
 26 25  1  0
 26 17  2  0
M  END
