@<TRIPOS>MOLECULE
*****
 26 29 0 0 0
SMALL
GASTEIGER

@<TRIPOS>ATOM
      1 O         -19.3380    4.8370   29.4650 O.2     1  UNL1       -0.2701
      2 C         -20.2910    4.9860   28.7150 C.2     1  UNL1        0.2742
      3 C         -21.7310    5.1740   29.2950 C.3     1  UNL1        0.1877
      4 C         -22.0080    4.3450   30.5340 C.ar    1  UNL1        0.0453
      5 C         -21.7090    2.9830   30.5710 C.ar    1  UNL1        0.0129
      6 C         -21.9040    2.2760   31.7440 C.ar    1  UNL1        0.0576
      7 CL        -21.6160    0.5590   31.7490 Cl      1  UNL1       -0.0823
      8 C         -22.3510    2.8820   32.8960 C.ar    1  UNL1        0.0145
      9 C         -22.6500    4.2310   32.8790 C.ar    1  UNL1        0.0375
     10 C         -22.4920    4.9490   31.7060 C.ar    1  UNL1        0.1372
     11 O         -22.8610    6.2710   31.7770 O.3     1  UNL1       -0.4756
     12 C         -23.0250    6.9370   30.5100 C.3     1  UNL1        0.2087
     13 C         -21.8510    6.6740   29.5930 C.3     1  UNL1        0.0879
     14 O         -22.6220    4.9940   28.1840 O.3     1  UNL1       -0.3428
     15 C         -23.1970    3.6960   27.9920 C.3     1  UNL1        0.1750
     16 N         -20.1560    5.0490   27.3710 N.am    1  UNL1       -0.1754
     17 C         -18.9350    5.0150   26.6550 C.ar    1  UNL1        0.0925
     18 C         -18.4220    6.2410   26.1290 C.ar    1  UNL1        0.0184
     19 C         -19.0810    7.4910   26.2610 C.ar    1  UNL1        0.0014
     20 C         -18.5060    8.6390   25.8000 C.ar    1  UNL1        0.0000
     21 C         -17.2680    8.6110   25.1780 C.ar    1  UNL1        0.0001
     22 C         -16.5920    7.4340   25.0240 C.ar    1  UNL1        0.0016
     23 C         -17.1430    6.2200   25.5030 C.ar    1  UNL1        0.0204
     24 C         -16.4540    4.9840   25.4490 C.ar    1  UNL1        0.0989
     25 N         -16.9280    3.8490   25.9340 N.ar    1  UNL1       -0.2410
     26 C         -18.1380    3.8780   26.5080 C.ar    1  UNL1        0.1154
@<TRIPOS>BOND
     1     2     1    2
     2     3     2    1
     3     4     3    1
     4     5     4   ar
     5     6     5   ar
     6     7     6    1
     7     8     6   ar
     8     9     8   ar
     9    10     4   ar
    10    10     9   ar
    11    11    10    1
    12    12    11    1
    13    13    12    1
    14    13     3    1
    15     3    14    1
    16    15    14    1
    17    16     2   am
    18    17    16    1
    19    18    17   ar
    20    19    18   ar
    21    20    19   ar
    22    21    20   ar
    23    22    21   ar
    24    23    22   ar
    25    23    18   ar
    26    24    23   ar
    27    25    24   ar
    28    26    25   ar
    29    26    17   ar
