@<TRIPOS>MOLECULE
*****
 16 17 0 0 0
SMALL
GASTEIGER

@<TRIPOS>ATOM
      1 O           8.8800    0.8730   20.7130 O.2     1  UNL1       -0.2484
      2 C           8.4470   -0.1940   21.1400 C.2     1  UNL1        0.3483
      3 N           9.1390   -0.9250   22.0930 N.am    1  UNL1       -0.1541
      4 C          10.3550   -0.4610   22.5860 C.ar    1  UNL1        0.1041
      5 C          11.2640   -1.1950   23.2880 C.ar    1  UNL1        0.0235
      6 C          12.4420   -0.4690   23.5700 C.ar    1  UNL1        0.0041
      7 S          10.9400    1.1410   22.2960 S.2     1  UNL1       -0.0747
      8 C          12.4340    0.8040   23.0890 C.ar    1  UNL1        0.0089
      9 C          13.5210    1.8270   23.1200 C.3     1  UNL1        0.0382
     10 N           7.2610   -0.7270   20.7360 N.am    1  UNL1       -0.1591
     11 C           6.3830   -0.0970   19.8310 C.ar    1  UNL1        0.0941
     12 C           6.7070   -0.0030   18.4780 C.ar    1  UNL1        0.1154
     13 N           5.9960    0.7150   17.6010 N.ar    1  UNL1       -0.2410
     14 C           4.9290    1.3760   18.0660 C.ar    1  UNL1        0.0990
     15 C           4.5170    1.3320   19.3840 C.ar    1  UNL1        0.0220
     16 C           5.2520    0.5740   20.2780 C.ar    1  UNL1        0.0198
@<TRIPOS>BOND
     1     2     1    2
     2     3     2   am
     3     4     3    1
     4     5     4   ar
     5     6     5   ar
     6     7     4   ar
     7     8     7   ar
     8     8     6   ar
     9     9     8    1
    10    10     2   am
    11    11    10    1
    12    12    11   ar
    13    13    12   ar
    14    14    13   ar
    15    15    14   ar
    16    16    15   ar
    17    16    11   ar
