@<TRIPOS>MOLECULE
*****
 15 16 0 0 0
SMALL
GASTEIGER

@<TRIPOS>ATOM
      1 N           7.1210   -2.3770   20.8140 N.am    1  UNL1       -0.2767
      2 C           7.3910   -2.4850   18.3580 C.3     1  UNL1        0.0948
      3 O           5.8870   -3.8230   19.6260 O.2     1  UNL1       -0.2749
      4 C           6.7370   -2.9400   19.6500 C.2     1  UNL1        0.2262
      5 C           8.0210   -1.2390   20.9600 C.3     1  UNL1        0.1107
      6 C           6.7030   -2.8760   22.1210 C.3     1  UNL1        0.1107
      7 C           7.9150   -3.2690   22.9340 C.3     1  UNL1        0.0942
      8 C          10.0200   -2.5600   23.8630 C.3     1  UNL1        0.0998
      9 C          11.1020   -1.5110   23.8610 C.ar    1  UNL1        0.0009
     10 C          12.2030   -1.4400   22.9550 C.ar    1  UNL1        0.0046
     11 C          12.9140   -0.2960   23.0500 C.ar    1  UNL1        0.0352
     12 C          11.1380   -0.4280   24.7330 C.ar    1  UNL1        0.0325
     13 C           9.2310   -1.6520   21.7630 C.3     1  UNL1        0.0942
     14 N           8.8460   -2.1470   23.0910 N.3     1  UNL1       -0.2660
     15 S          12.2810    0.7240   24.2380 S.2     1  UNL1       -0.0862
@<TRIPOS>BOND
     1     4     3    2
     2     4     2    1
     3     4     1   am
     4     5     1    1
     5     6     1    1
     6     7     6    1
     7     9     8    1
     8    10     9   ar
     9    11    10   ar
    10    12     9   ar
    11    13     5    1
    12    14    13    1
    13    14     8    1
    14    14     7    1
    15    15    12   ar
    16    15    11   ar
