@<TRIPOS>MOLECULE
*****
 23 24 0 0 0
SMALL
GASTEIGER

@<TRIPOS>ATOM
      1 S           6.7080   -5.3480   21.8770 S.O2    1  UNL1        0.0592
      2 N           7.6150   -4.0290   22.1100 N.3     1  UNL1       -0.0820
      3 N           6.7820    0.5380   17.6120 N.ar    1  UNL1       -0.2410
      4 C           7.8450   -3.5240   23.4730 C.3     1  UNL1        0.1159
      5 C          12.0020   -1.3060   21.9810 C.ar    1  UNL1       -0.0038
      6 O           6.3180   -5.3460   20.4990 O.2     1  UNL1       -0.1561
      7 C           5.6650    1.0590   18.1380 C.ar    1  UNL1        0.0990
      8 C           9.1350   -2.7300   23.6540 C.3     1  UNL1        0.0343
      9 C           6.2930    0.4450   20.3500 C.ar    1  UNL1        0.0198
     10 C           7.4570   -0.1140   19.8310 C.ar    1  UNL1        0.0925
     11 C           8.4740   -0.9550   21.9670 C.2     1  UNL1        0.2493
     12 C          10.8480   -1.1020   22.7320 C.ar    1  UNL1       -0.0138
     13 C          13.1500    0.4050   23.2120 C.ar    1  UNL1       -0.0000
     14 C           7.6520   -0.0380   18.4520 C.ar    1  UNL1        0.1154
     15 C          13.1440   -0.5560   22.2170 C.ar    1  UNL1       -0.0003
     16 C          12.0140    0.6090   23.9740 C.ar    1  UNL1       -0.0003
     17 C           5.2670   -5.1760   22.8580 C.3     1  UNL1        0.1975
     18 N           8.4370   -0.7680   20.6230 N.am    1  UNL1       -0.1774
     19 O           7.4570   -6.4580   22.3790 O.2     1  UNL1       -0.1561
     20 O           7.6860   -0.4280   22.7510 O.2     1  UNL1       -0.2726
     21 C           5.3800    1.0370   19.4920 C.ar    1  UNL1        0.0220
     22 C           9.5820   -1.8970   22.4400 C.3     1  UNL1        0.1022
     23 C          10.8710   -0.1440   23.7380 C.ar    1  UNL1       -0.0038
@<TRIPOS>BOND
     1     2     1    1
     2     4     2    1
     3     6     1    2
     4     7     3   ar
     5     8     4    1
     6    10     9   ar
     7    12     5   ar
     8    14    10   ar
     9    14     3   ar
    10    15    13   ar
    11    15     5   ar
    12    16    13   ar
    13     1    17    1
    14    18    10    1
    15    18    11   am
    16    19     1    2
    17    20    11    2
    18    21     9   ar
    19    21     7   ar
    20    22    12    1
    21    22    11    1
    22    22     8    1
    23    23    12   ar
    24    23    16   ar
