@<TRIPOS>MOLECULE
*****
 19 20 0 0 0
SMALL
GASTEIGER

@<TRIPOS>ATOM
      1 N          14.4980   -1.7120   20.4870 N.1     1  UNL1       -0.1908
      2 C          13.7650   -1.3000   21.2580 C.1     1  UNL1        0.1020
      3 C          12.8060   -0.8090   22.2130 C.ar    1  UNL1        0.0873
      4 C          13.1810    0.0030   23.2820 C.ar    1  UNL1        0.1091
      5 N          12.3180    0.4450   24.2060 N.ar    1  UNL1       -0.2419
      6 C          11.0290    0.1060   24.0550 C.ar    1  UNL1        0.0951
      7 C          11.4640   -1.1590   22.0960 C.ar    1  UNL1        0.0096
      8 C          10.5410   -0.6720   23.0150 C.ar    1  UNL1        0.0068
      9 C           9.0560   -0.8520   22.7980 C.3     1  UNL1        0.1150
     10 C           8.6250   -0.0590   21.5800 C.2     1  UNL1        0.2501
     11 O           9.4270    0.5990   20.9310 O.2     1  UNL1       -0.2726
     12 N           7.3100    0.0540   21.3900 N.am    1  UNL1       -0.1777
     13 C           6.6920    0.3530   20.1550 C.ar    1  UNL1        0.0885
     14 C           5.3730    0.8120   20.1630 C.ar    1  UNL1       -0.0034
     15 C           4.6420    1.0950   21.4510 C.3     1  UNL1        0.0325
     16 C           7.3300    0.1620   18.9250 C.ar    1  UNL1        0.1151
     17 N           6.7720    0.4720   17.7510 N.ar    1  UNL1       -0.2410
     18 C           5.5340    0.9780   17.7770 C.ar    1  UNL1        0.0987
     19 C           4.8050    1.1470   18.9380 C.ar    1  UNL1        0.0177
@<TRIPOS>BOND
     1     2     1    3
     2     3     2    1
     3     4     3   ar
     4     5     4   ar
     5     6     5   ar
     6     7     3   ar
     7     8     7   ar
     8     8     6   ar
     9     9     8    1
    10    10     9    1
    11    11    10    2
    12    12    10   am
    13    13    12    1
    14    14    13   ar
    15    15    14    1
    16    16    13   ar
    17    17    16   ar
    18    18    17   ar
    19    19    14   ar
    20    19    18   ar
