@<TRIPOS>MOLECULE
*****
 17 18 0 0 0
SMALL
GASTEIGER

@<TRIPOS>ATOM
      1 N           6.4580   -5.0740   21.6600 N.am    1  UNL1       -0.2766
      2 C           7.7170   -3.4870   20.2310 C.3     1  UNL1        0.0948
      3 O           5.7790   -4.7100   19.5560 O.2     1  UNL1       -0.2749
      4 C           6.5830   -4.4800   20.4520 C.2     1  UNL1        0.2262
      5 C           7.3020   -4.8180   22.8280 C.3     1  UNL1        0.1126
      6 C           6.4570   -4.3000   23.9610 C.3     1  UNL1        0.1173
      7 C           4.5580   -5.5840   23.1030 C.3     1  UNL1        0.1173
      8 C           5.4240   -6.0620   21.9650 C.3     1  UNL1        0.1126
      9 C           3.5060   -3.8270   25.6030 C.ar    1  UNL1        0.1516
     10 C           2.1960   -3.9360   25.2050 C.ar    1  UNL1        0.0271
     11 C           1.5490   -2.6750   25.2580 C.ar    1  UNL1        0.0089
     12 C           2.3390   -1.6930   25.7540 C.ar    1  UNL1        0.0368
     13 N           5.4040   -5.2810   24.2720 N.3     1  UNL1       -0.1516
     14 O           3.9120   -6.3280   25.9370 O.2     1  UNL1       -0.1523
     15 O           5.6580   -4.7400   26.6680 O.2     1  UNL1       -0.1523
     16 S           4.6610   -5.1310   25.7200 S.O2    1  UNL1        0.0691
     17 S           3.9440   -2.2160   25.9850 S.2     1  UNL1       -0.0668
@<TRIPOS>BOND
     1     4     3    2
     2     4     2    1
     3     4     1   am
     4     5     1    1
     5     6     5    1
     6     8     7    1
     7     8     1    1
     8    10     9   ar
     9    11    10   ar
    10    12    11   ar
    11    13     7    1
    12    13     6    1
    13    16    14    2
    14    16    13    1
    15    16     9    1
    16    16    15    2
    17    17    12   ar
    18    17     9   ar
