@<TRIPOS>MOLECULE
*****
 22 24 0 0 0
SMALL
GASTEIGER

@<TRIPOS>ATOM
      1 CL         13.9600   -1.4570   21.7720 Cl      1  UNL1       -0.0799
      2 C          12.5010   -0.8660   22.4960 C.ar    1  UNL1        0.0847
      3 C          12.5590    0.0260   23.5460 C.ar    1  UNL1        0.1506
      4 F          13.7600    0.5280   23.9220 F       1  UNL1       -0.2033
      5 C          11.2750   -1.3230   22.0550 C.ar    1  UNL1        0.0099
      6 C          10.1030   -0.8960   22.6710 C.ar    1  UNL1       -0.0120
      7 C          10.1970   -0.0290   23.7540 C.ar    1  UNL1       -0.0014
      8 C          11.4210    0.4410   24.1940 C.ar    1  UNL1        0.0302
      9 C           8.7580   -1.3070   22.1180 C.3     1  UNL1        0.1135
     10 C           8.2220   -0.2640   21.1580 C.2     1  UNL1        0.2500
     11 O           8.4800    0.9330   21.2850 O.2     1  UNL1       -0.2726
     12 N           7.5540   -0.7680   20.1070 N.am    1  UNL1       -0.1773
     13 C           6.5300   -0.2120   19.3190 C.ar    1  UNL1        0.0925
     14 C           5.5650    0.6940   19.8730 C.ar    1  UNL1        0.0184
     15 C           5.2410    0.7600   21.2530 C.ar    1  UNL1        0.0014
     16 C           4.2270    1.5590   21.7020 C.ar    1  UNL1        0.0000
     17 C           3.4890    2.3300   20.8180 C.ar    1  UNL1        0.0001
     18 C           3.7630    2.3070   19.4820 C.ar    1  UNL1        0.0016
     19 C           4.8010    1.4860   18.9710 C.ar    1  UNL1        0.0204
     20 C           5.0530    1.3360   17.5900 C.ar    1  UNL1        0.0989
     21 N           5.9300    0.4880   17.0800 N.ar    1  UNL1       -0.2410
     22 C           6.6260   -0.2670   17.9330 C.ar    1  UNL1        0.1154
@<TRIPOS>BOND
     1     2     1    1
     2     3     2   ar
     3     4     3    1
     4     5     2   ar
     5     6     5   ar
     6     7     6   ar
     7     8     7   ar
     8     8     3   ar
     9     9     6    1
    10    10     9    1
    11    11    10    2
    12    12    10   am
    13    13    12    1
    14    14    13   ar
    15    15    14   ar
    16    16    15   ar
    17    17    16   ar
    18    18    17   ar
    19    19    18   ar
    20    19    14   ar
    21    20    19   ar
    22    21    20   ar
    23    22    21   ar
    24    22    13   ar
