@<TRIPOS>MOLECULE
*****
 20 21 0 0 0
SMALL
GASTEIGER

@<TRIPOS>ATOM
      1 N           7.0960   -3.4700   21.1350 N.am    1  UNL1       -0.2766
      2 C           7.0040   -2.8940   18.7600 C.3     1  UNL1        0.0948
      3 O           5.7500   -4.6280   19.7330 O.2     1  UNL1       -0.2749
      4 C           6.5610   -3.7330   19.9210 C.2     1  UNL1        0.2262
      5 C           9.6920   -4.9350   26.5270 C.ar    1  UNL1        0.0116
      6 C           9.1900   -3.8460   25.8240 C.ar    1  UNL1        0.0870
      7 C           9.9810   -3.2660   24.7700 C.1     1  UNL1        0.1018
      8 C           8.0090   -2.3690   21.4760 C.3     1  UNL1        0.1126
      9 C           7.4520   -1.5380   22.6040 C.3     1  UNL1        0.1173
     10 C           6.1740   -3.4640   23.3790 C.3     1  UNL1        0.1173
     11 C           6.7630   -4.3130   22.2860 C.3     1  UNL1        0.1126
     12 C           7.9410   -3.2970   26.1660 C.ar    1  UNL1        0.1317
     13 C           7.2000   -3.8930   27.1830 C.ar    1  UNL1        0.0206
     14 C           7.7130   -4.9770   27.8710 C.ar    1  UNL1        0.0014
     15 C           8.9470   -5.4920   27.5470 C.ar    1  UNL1        0.0008
     16 N           7.1840   -2.4520   23.7220 N.3     1  UNL1       -0.1520
     17 N          10.6110   -2.7060   23.9920 N.1     1  UNL1       -0.1908
     18 O           8.2230   -0.8590   25.3070 O.2     1  UNL1       -0.1528
     19 O           5.9330   -1.7000   25.7240 O.2     1  UNL1       -0.1528
     20 S           7.2700   -1.9230   25.2720 S.O2    1  UNL1        0.0640
@<TRIPOS>BOND
     1     4     3    2
     2     4     2    1
     3     4     1   am
     4     6     5   ar
     5     7     6    1
     6     8     1    1
     7     9     8    1
     8    11     1    1
     9    11    10    1
    10    12     6   ar
    11    13    12   ar
    12    14    13   ar
    13    15     5   ar
    14    15    14   ar
    15    16    10    1
    16    16     9    1
    17    17     7    3
    18    20    19    2
    19    20    18    2
    20    20    16    1
    21    20    12    1
