@<TRIPOS>MOLECULE
*****
 28 31 0 0 0
SMALL
GASTEIGER

@<TRIPOS>ATOM
      1 CL         13.9590   -1.6580   20.9710 Cl      1  UNL1       -0.0823
      2 C          12.9850   -0.6840   22.0270 C.ar    1  UNL1        0.0576
      3 C          13.6010    0.2060   22.8770 C.ar    1  UNL1        0.0145
      4 C          12.8380    0.9010   23.7970 C.ar    1  UNL1        0.0374
      5 C          11.4670    0.6960   23.8380 C.ar    1  UNL1        0.1350
      6 O          10.7760    1.4100   24.7840 O.3     1  UNL1       -0.4757
      7 C           9.5850    0.7550   25.2480 C.3     1  UNL1        0.2062
      8 C           8.6340    0.4740   24.1130 C.3     1  UNL1        0.0609
      9 C          11.6210   -0.8770   22.0420 C.ar    1  UNL1        0.0106
     10 C          10.8370   -0.1830   22.9600 C.ar    1  UNL1        0.0211
     11 C           9.3310   -0.3500   23.0120 C.3     1  UNL1        0.1063
     12 C           8.8100    0.0450   21.6330 C.2     1  UNL1        0.2390
     13 O           9.2260    1.0270   21.0500 O.2     1  UNL1       -0.2738
     14 N           7.8590   -0.7840   21.0070 N.am    1  UNL1       -0.2064
     15 C           7.6970   -2.1560   21.2910 C.2     1  UNL1        0.2352
     16 O           8.5670   -2.7810   21.8860 O.2     1  UNL1       -0.2741
     17 C           6.4820   -2.8520   20.7500 C.3     1  UNL1        0.0860
     18 C           6.8630   -3.9580   19.7800 C.3     1  UNL1        0.0101
     19 C           7.0690   -0.1830   19.9500 C.ar    1  UNL1        0.0797
     20 C           7.4890   -0.2080   18.6240 C.ar    1  UNL1        0.1141
     21 N           6.8510    0.4110   17.6210 N.ar    1  UNL1       -0.2410
     22 C           5.7500    1.0910   17.9180 C.ar    1  UNL1        0.0989
     23 C           5.2080    1.2060   19.2260 C.ar    1  UNL1        0.0204
     24 C           5.8910    0.5440   20.2840 C.ar    1  UNL1        0.0171
     25 C           4.0120    1.9080   19.5120 C.ar    1  UNL1        0.0016
     26 C           3.5090    1.9350   20.7800 C.ar    1  UNL1        0.0001
     27 C           4.1620    1.2820   21.8140 C.ar    1  UNL1        0.0000
     28 C           5.3290    0.6120   21.5850 C.ar    1  UNL1        0.0013
@<TRIPOS>BOND
     1     2     1    1
     2     3     2   ar
     3     4     3   ar
     4     5     4   ar
     5     6     5    1
     6     7     6    1
     7     8     7    1
     8     9     2   ar
     9    10     9   ar
    10    10     5   ar
    11    11    10    1
    12    11     8    1
    13    11    12    1
    14    13    12    2
    15    14    12   am
    16    15    14   am
    17    16    15    2
    18    17    15    1
    19    18    17    1
    20    19    14    1
    21    20    19   ar
    22    21    20   ar
    23    22    21   ar
    24    23    22   ar
    25    24    23   ar
    26    24    19   ar
    27    25    23   ar
    28    26    25   ar
    29    27    26   ar
    30    28    27   ar
    31    28    24   ar
