@<TRIPOS>MOLECULE
*****
 25 28 0 0 0
SMALL
GASTEIGER

@<TRIPOS>ATOM
      1 O           9.3810    1.0790   21.1150 O.2     1  UNL1       -0.2727
      2 C           8.8600    0.0770   21.5790 C.2     1  UNL1        0.2487
      3 C           9.4200   -0.5970   22.8450 C.3     1  UNL1        0.0960
      4 C          10.9290   -0.3500   22.8240 C.ar    1  UNL1        0.0204
      5 C          11.7520   -1.0180   21.9190 C.ar    1  UNL1        0.0106
      6 C          13.1080   -0.7570   21.9210 C.ar    1  UNL1        0.0576
      7 CL         14.1410   -1.6900   20.8830 Cl      1  UNL1       -0.0823
      8 C          13.6760    0.1590   22.7790 C.ar    1  UNL1        0.0145
      9 C          12.8760    0.8200   23.6890 C.ar    1  UNL1        0.0374
     10 C          11.5170    0.5600   23.7070 C.ar    1  UNL1        0.1350
     11 O          10.7930    1.2430   24.6460 O.3     1  UNL1       -0.4757
     12 C           9.6670    0.4960   25.1390 C.3     1  UNL1        0.2062
     13 C           8.7080    0.1160   24.0270 C.3     1  UNL1        0.0602
     14 C           9.1790   -2.1180   22.9210 C.3     1  UNL1        0.0138
     15 N           7.8890   -0.5550   20.9180 N.am    1  UNL1       -0.1774
     16 C           6.9640   -0.1740   19.9470 C.ar    1  UNL1        0.0925
     17 C           5.8540    0.6590   20.2690 C.ar    1  UNL1        0.0184
     18 C           5.3610    0.8360   21.5900 C.ar    1  UNL1        0.0014
     19 C           4.1980    1.5110   21.8200 C.ar    1  UNL1        0.0000
     20 C           3.4760    2.0540   20.7710 C.ar    1  UNL1        0.0001
     21 C           3.9230    1.9410   19.4870 C.ar    1  UNL1        0.0016
     22 C           5.1230    1.2440   19.1990 C.ar    1  UNL1        0.0204
     23 C           5.5940    1.0250   17.8820 C.ar    1  UNL1        0.0989
     24 N           6.6490    0.2790   17.5860 N.ar    1  UNL1       -0.2410
     25 C           7.2840   -0.3230   18.5990 C.ar    1  UNL1        0.1154
@<TRIPOS>BOND
     1     2     1    2
     2     3     2    1
     3     4     3    1
     4     5     4   ar
     5     6     5   ar
     6     7     6    1
     7     8     6   ar
     8     9     8   ar
     9    10     9   ar
    10    10     4   ar
    11    11    10    1
    12    12    11    1
    13    13    12    1
    14    13     3    1
    15     3    14    1
    16    15     2   am
    17    16    15    1
    18    17    16   ar
    19    18    17   ar
    20    19    18   ar
    21    20    19   ar
    22    21    20   ar
    23    22    21   ar
    24    22    17   ar
    25    23    22   ar
    26    24    23   ar
    27    25    24   ar
    28    25    16   ar
