@<TRIPOS>MOLECULE
*****
 34 38 0 0 0
SMALL
GASTEIGER

@<TRIPOS>ATOM
      1 O           9.2510    1.3630   21.0870 O.2     1  UNL1       -0.2726
      2 C           8.8590    0.2550   21.4280 C.2     1  UNL1        0.2504
      3 N           7.9470   -0.4060   20.6880 N.am    1  UNL1       -0.1773
      4 C           6.8900   -0.0240   19.8460 C.ar    1  UNL1        0.0925
      5 C           5.8630    0.8840   20.2750 C.ar    1  UNL1        0.0184
      6 C           5.5330    1.1170   21.6360 C.ar    1  UNL1        0.0014
      7 C           4.4520    1.8810   21.9790 C.ar    1  UNL1        0.0000
      8 C           3.6570    2.4640   21.0010 C.ar    1  UNL1        0.0001
      9 C           3.9420    2.2860   19.6780 C.ar    1  UNL1        0.0016
     10 C           5.0420    1.4850   19.2790 C.ar    1  UNL1        0.0204
     11 C           5.3190    1.1820   17.9280 C.ar    1  UNL1        0.0989
     12 N           6.2680    0.3540   17.5300 N.ar    1  UNL1       -0.2410
     13 C           7.0040   -0.2410   18.4760 C.ar    1  UNL1        0.1154
     14 C           9.4800   -0.4700   22.6480 C.3     1  UNL1        0.1160
     15 C           8.7840    0.1610   23.8780 C.3     1  UNL1        0.0619
     16 C           9.3330    1.5360   24.1940 C.3     1  UNL1        0.2063
     17 O          10.7460    1.5070   24.4580 O.3     1  UNL1       -0.4757
     18 C          10.9810   -0.1700   22.7020 C.ar    1  UNL1        0.0221
     19 C          11.5080    0.8150   23.5470 C.ar    1  UNL1        0.1350
     20 C          12.8620    1.1070   23.5670 C.ar    1  UNL1        0.0374
     21 C          13.7190    0.4050   22.7410 C.ar    1  UNL1        0.0145
     22 C          11.8640   -0.8880   21.8980 C.ar    1  UNL1        0.0106
     23 C          13.2110   -0.5760   21.9170 C.ar    1  UNL1        0.0576
     24 CL         14.2720   -1.3640   20.7780 Cl      1  UNL1       -0.0823
     25 C           9.2890   -2.0070   22.6540 C.3     1  UNL1        0.1281
     26 N           9.4570   -2.5890   23.9730 N.am    1  UNL1       -0.2029
     27 C           8.5520   -3.3890   24.5240 C.2     1  UNL1        0.2645
     28 O           7.9710   -4.2830   23.9100 O.2     1  UNL1       -0.2712
     29 C           8.1920   -3.0360   25.9570 C.3     1  UNL1        0.1947
     30 N           8.7200   -3.9530   26.9600 N.ar    1  UNL1       -0.2991
     31 C           9.8200   -4.7210   26.8630 C.ar    1  UNL1        0.1790
     32 N           9.9970   -5.4730   27.9280 N.ar    1  UNL1       -0.2223
     33 C           8.9500   -5.1570   28.7590 C.ar    1  UNL1        0.1193
     34 C           8.1590   -4.2260   28.1850 C.ar    1  UNL1        0.0984
@<TRIPOS>BOND
     1     2     1    2
     2     3     2   am
     3     4     3    1
     4     5     4   ar
     5     6     5   ar
     6     7     6   ar
     7     8     7   ar
     8     9     8   ar
     9    10     9   ar
    10    10     5   ar
    11    11    10   ar
    12    12    11   ar
    13    13    12   ar
    14    13     4   ar
    15    14     2    1
    16    15    14    1
    17    16    15    1
    18    17    16    1
    19    18    14    1
    20    19    17    1
    21    19    18   ar
    22    20    19   ar
    23    21    20   ar
    24    22    18   ar
    25    23    22   ar
    26    23    21   ar
    27    24    23    1
    28    14    25    1
    29    26    25    1
    30    27    26   am
    31    28    27    2
    32    29    27    1
    33    30    29    1
    34    31    30   ar
    35    32    31   ar
    36    33    32   ar
    37    34    30   ar
    38    34    33   ar
