@<TRIPOS>MOLECULE
*****
 18 20 0 0 0
SMALL
GASTEIGER

@<TRIPOS>ATOM
      1 BR         11.9170    0.2150   22.7360 Br      1  UNL1       -0.0490
      2 C          10.2900   -0.2120   21.8500 C.ar    1  UNL1        0.0344
      3 C          10.1040   -1.4970   21.3770 C.ar    1  UNL1        0.0066
      4 C           8.8970   -1.8170   20.7730 C.ar    1  UNL1        0.0308
      5 C           8.4060   -3.0750   20.1190 C.3     1  UNL1        0.2513
      6 O           8.4940   -4.1840   20.9980 O.3     1  UNL1       -0.2083
      7 C           9.3130    0.7650   21.7210 C.ar    1  UNL1        0.0080
      8 C           8.1000    0.4400   21.1350 C.ar    1  UNL1        0.0152
      9 C           7.8950   -0.8610   20.6840 C.ar    1  UNL1        0.0532
     10 N           6.7360   -1.4400   20.1570 N.am    1  UNL1       -0.2488
     11 C           6.9430   -2.7580   19.8340 C.2     1  UNL1        0.2646
     12 O           6.0960   -3.5330   19.4370 O.2     1  UNL1       -0.2714
     13 C           5.4620   -0.7500   19.9900 C.3     1  UNL1        0.1672
     14 C           5.5230    0.3360   18.9670 C.ar    1  UNL1        0.2012
     15 N           4.5430    1.2910   18.9140 N.ar    1  UNL1       -0.1853
     16 C           4.9290    2.0050   17.9160 C.ar    1  UNL1        0.3161
     17 O           6.0500    1.5940   17.3480 O.2     1  UNL1       -0.3277
     18 N           6.4520    0.4590   18.0700 N.ar    1  UNL1       -0.0582
@<TRIPOS>BOND
     1     2     1    1
     2     3     2   ar
     3     4     3   ar
     4     5     4    1
     5     5     6    1
     6     7     2   ar
     7     8     7   ar
     8     9     8   ar
     9     9     4   ar
    10    10     9    1
    11    11    10   am
    12    11     5    1
    13    12    11    2
    14    13    10    1
    15    14    13    1
    16    15    14   ar
    17    16    15   ar
    18    17    16   ar
    19    18    17   ar
    20    18    14   ar
