
     RDKit          3D

 27 30  0  0  0  0  0  0  0  0999 V2000
   14.2460   -1.4910   21.3120 Cl  0  0  0  0  0  0  0  0  0  0  0  0
   12.9200   -0.8150   22.2150 C   0  0  0  0  0  0  0  0  0  0  0  0
   11.6450   -1.2640   21.9580 C   0  0  0  0  0  0  0  0  0  0  0  0
   13.1660    0.1740   23.1470 C   0  0  0  0  0  0  0  0  0  0  0  0
   12.1060    0.7190   23.8520 C   0  0  0  0  0  0  0  0  0  0  0  0
   10.8090    0.2670   23.6170 C   0  0  0  0  0  0  0  0  0  0  0  0
    9.7160    0.7300   24.4010 N   0  0  0  0  0  0  0  0  0  0  0  0
    9.7580    1.7980   25.2430 C   0  0  0  0  0  0  0  0  0  0  0  0
   10.0260    1.6470   26.4260 O   0  0  0  0  0  0  0  0  0  0  0  0
    9.3740    3.1290   24.6740 C   0  0  0  0  0  0  0  0  0  0  0  0
   10.5680   -0.7130   22.6450 C   0  0  0  0  0  0  0  0  0  0  0  0
    9.1600   -1.1630   22.3190 C   0  0  1  0  0  0  0  0  0  0  0  0
    8.3930   -1.2750   23.6430 C   0  0  0  0  0  0  0  0  0  0  0  0
    8.3970    0.0710   24.3530 C   0  0  0  0  0  0  0  0  0  0  0  0
    8.5120   -0.1740   21.3480 C   0  0  0  0  0  0  0  0  0  0  0  0
    9.0060    0.9290   21.1030 O   0  0  0  0  0  0  0  0  0  0  0  0
    7.3870   -0.6280   20.7600 N   0  0  0  0  0  0  0  0  0  0  0  0
    6.6400   -0.0140   19.7380 C   0  0  0  0  0  0  0  0  0  0  0  0
    5.5460    0.8300   20.1030 C   0  0  0  0  0  0  0  0  0  0  0  0
    5.1520    1.0750   21.4440 C   0  0  0  0  0  0  0  0  0  0  0  0
    4.1180    1.9210   21.7280 C   0  0  0  0  0  0  0  0  0  0  0  0
    3.4240    2.5580   20.7060 C   0  0  0  0  0  0  0  0  0  0  0  0
    3.7660    2.3540   19.4020 C   0  0  0  0  0  0  0  0  0  0  0  0
    4.8360    1.4890   19.0640 C   0  0  0  0  0  0  0  0  0  0  0  0
    5.2610    1.2650   17.7350 C   0  0  0  0  0  0  0  0  0  0  0  0
    6.2820    0.4900   17.3980 N   0  0  0  0  0  0  0  0  0  0  0  0
    6.9410   -0.1300   18.3830 C   0  0  0  0  0  0  0  0  0  0  0  0
  2  1  1  0
  3  2  2  0
  4  2  1  0
  5  4  2  0
  6  5  1  0
  7  6  1  0
  8  7  1  0
  9  8  2  0
 10  8  1  0
 11  6  2  0
 11  3  1  0
 12 11  1  0
 13 12  1  0
 14 13  1  0
 14  7  1  0
 12 15  1  6
 16 15  2  0
 17 15  1  0
 18 17  1  0
 19 18  1  0
 20 19  2  0
 21 20  1  0
 22 21  2  0
 23 22  1  0
 24 23  2  0
 24 19  1  0
 25 24  1  0
 26 25  2  0
 27 26  1  0
 27 18  2  0
M  END
> <BADATOMS>
1462;1459;1460;1461
> <BADCOMMENTS>
Weak Density;Weak Density;Weak Density;Weak Density