@<TRIPOS>MOLECULE
*****
 27 30 0 0 0
SMALL
GASTEIGER

@<TRIPOS>ATOM
      1 CL         14.2460   -1.4910   21.3120 Cl      1  UNL1       -0.0823
      2 C          12.9200   -0.8150   22.2150 C.ar    1  UNL1        0.0575
      3 C          11.6450   -1.2640   21.9580 C.ar    1  UNL1        0.0088
      4 C          13.1660    0.1740   23.1470 C.ar    1  UNL1        0.0127
      5 C          12.1060    0.7190   23.8520 C.ar    1  UNL1        0.0155
      6 C          10.8090    0.2670   23.6170 C.ar    1  UNL1        0.0503
      7 N           9.7160    0.7300   24.4010 N.am    1  UNL1       -0.2589
      8 C           9.7580    1.7980   25.2430 C.2     1  UNL1        0.2298
      9 O          10.0260    1.6470   26.4260 O.2     1  UNL1       -0.2745
     10 C           9.3740    3.1290   24.6740 C.3     1  UNL1        0.0952
     11 C          10.5680   -0.7130   22.6450 C.ar    1  UNL1        0.0008
     12 C           9.1600   -1.1630   22.3190 C.3     1  UNL1        0.1037
     13 C           8.3930   -1.2750   23.6430 C.3     1  UNL1        0.0355
     14 C           8.3970    0.0710   24.3530 C.3     1  UNL1        0.0990
     15 C           8.5120   -0.1740   21.3480 C.2     1  UNL1        0.2493
     16 O           9.0060    0.9290   21.1030 O.2     1  UNL1       -0.2726
     17 N           7.3870   -0.6280   20.7600 N.am    1  UNL1       -0.1774
     18 C           6.6400   -0.0140   19.7380 C.ar    1  UNL1        0.0925
     19 C           5.5460    0.8300   20.1030 C.ar    1  UNL1        0.0184
     20 C           5.1520    1.0750   21.4440 C.ar    1  UNL1        0.0014
     21 C           4.1180    1.9210   21.7280 C.ar    1  UNL1        0.0000
     22 C           3.4240    2.5580   20.7060 C.ar    1  UNL1        0.0001
     23 C           3.7660    2.3540   19.4020 C.ar    1  UNL1        0.0016
     24 C           4.8360    1.4890   19.0640 C.ar    1  UNL1        0.0204
     25 C           5.2610    1.2650   17.7350 C.ar    1  UNL1        0.0989
     26 N           6.2820    0.4900   17.3980 N.ar    1  UNL1       -0.2410
     27 C           6.9410   -0.1300   18.3830 C.ar    1  UNL1        0.1154
@<TRIPOS>BOND
     1     2     1    1
     2     3     2   ar
     3     4     2   ar
     4     5     4   ar
     5     6     5   ar
     6     7     6    1
     7     8     7   am
     8     9     8    2
     9    10     8    1
    10    11     6   ar
    11    11     3   ar
    12    12    11    1
    13    13    12    1
    14    14    13    1
    15    14     7    1
    16    12    15    1
    17    16    15    2
    18    17    15   am
    19    18    17    1
    20    19    18   ar
    21    20    19   ar
    22    21    20   ar
    23    22    21   ar
    24    23    22   ar
    25    24    23   ar
    26    24    19   ar
    27    25    24   ar
    28    26    25   ar
    29    27    26   ar
    30    27    18   ar
