@<TRIPOS>MOLECULE
*****
 15 16 0 0 0
SMALL
GASTEIGER

@<TRIPOS>ATOM
      1 N           7.2860   -3.8500   21.2790 N.am    1  UNL1       -0.1543
      2 C           7.8680   -4.7730   27.6250 C.3     1  UNL1        0.2525
      3 O           7.7050   -4.8430   26.2080 O.3     1  UNL1       -0.4699
      4 C           6.5970   -5.4540   25.7110 C.ar    1  UNL1        0.1567
      5 C           5.6790   -6.1830   26.4640 C.ar    1  UNL1        0.0385
      6 C           4.5750   -6.7720   25.8410 C.ar    1  UNL1        0.0037
      7 C           4.3700   -6.6500   24.4840 C.ar    1  UNL1        0.0083
      8 C           5.2950   -5.9220   23.7460 C.ar    1  UNL1        0.0528
      9 C           6.7240   -4.6130   22.2820 C.ar    1  UNL1        0.1859
     10 C           6.7860   -3.7060   20.0130 C.2     1  UNL1        0.2478
     11 C           7.5920   -2.8130   19.1000 C.3     1  UNL1        0.0969
     12 C           6.4150   -5.3170   24.3370 C.ar    1  UNL1        0.1231
     13 N           7.2480   -4.6240   23.4740 N.ar    1  UNL1       -0.2194
     14 O           5.7610   -4.2650   19.6580 O.2     1  UNL1       -0.2729
     15 S           5.3020   -5.5990   22.0330 S.2     1  UNL1       -0.0496
@<TRIPOS>BOND
     1     3     2    1
     2     4     3    1
     3     5     4   ar
     4     6     5   ar
     5     7     6   ar
     6     8     7   ar
     7     9     1    1
     8    10     1   am
     9    11    10    1
    10    12     8   ar
    11    12     4   ar
    12    13    12   ar
    13    13     9   ar
    14    14    10    2
    15    15     8   ar
    16    15     9   ar
