@<TRIPOS>MOLECULE
*****
 16 17 0 0 0
SMALL
GASTEIGER

@<TRIPOS>ATOM
      1 N           6.9450   -2.6420   21.0050 N.am    1  UNL1       -0.2767
      2 C           7.3590   -2.5030   18.5650 C.3     1  UNL1        0.0948
      3 O           5.8360   -4.0010   19.6070 O.2     1  UNL1       -0.2749
      4 C           6.6450   -3.0950   19.7670 C.2     1  UNL1        0.2262
      5 C           6.4770   -3.3070   22.2180 C.3     1  UNL1        0.1107
      6 C           7.8190   -1.5180   21.3380 C.3     1  UNL1        0.1107
      7 C           8.9970   -2.0090   22.1510 C.3     1  UNL1        0.0942
      8 C           9.7210   -3.1610   24.1570 C.3     1  UNL1        0.1058
      9 C           9.3930   -4.2440   25.1410 C.ar    1  UNL1        0.0239
     10 C           9.7020   -5.6000   25.0300 C.ar    1  UNL1        0.0046
     11 C           9.3800   -6.3390   26.1920 C.ar    1  UNL1        0.0134
     12 C           8.5940   -5.5720   27.0710 C.ar    1  UNL1        0.0635
     13 C           7.6640   -3.7970   23.0130 C.3     1  UNL1        0.0942
     14 N           8.5580   -2.6910   23.3750 N.3     1  UNL1       -0.2656
     15 S           8.5250   -3.9250   26.6080 S.2     1  UNL1       -0.0831
     16 BR          7.6730   -6.1600   28.5910 Br      1  UNL1       -0.0419
@<TRIPOS>BOND
     1     4     3    2
     2     4     2    1
     3     4     1   am
     4     5     1    1
     5     6     1    1
     6     7     6    1
     7     9     8    1
     8    10     9   ar
     9    11    10   ar
    10    12    11   ar
    11    13     5    1
    12    14    13    1
    13    14     8    1
    14    14     7    1
    15    15    12   ar
    16    15     9   ar
    17    16    12    1
