@<TRIPOS>MOLECULE
*****
 25 28 0 0 0
SMALL
GASTEIGER

@<TRIPOS>ATOM
      1 CL         14.0430   -1.5380   21.1220 Cl      1  UNL1       -0.0823
      2 C          12.9160   -0.7620   22.2020 C.ar    1  UNL1        0.0575
      3 C          13.3950    0.1460   23.1370 C.ar    1  UNL1        0.0127
      4 C          12.5010    0.8410   23.9330 C.ar    1  UNL1        0.0172
      5 C          11.5640   -1.0140   22.0450 C.ar    1  UNL1        0.0093
      6 C          10.6670   -0.2910   22.8200 C.ar    1  UNL1        0.0099
      7 C          11.1370    0.6210   23.7580 C.ar    1  UNL1        0.0703
      8 N          10.0590    1.1990   24.4240 N.am    1  UNL1       -0.1789
      9 C           8.8710    0.7460   23.9560 C.2     1  UNL1        0.2569
     10 O           7.7620    1.0940   24.3390 O.2     1  UNL1       -0.2722
     11 C           9.1560   -0.2650   22.8230 C.3     1  UNL1        0.1610
     12 C           8.5730   -1.6360   23.2410 C.3     1  UNL1        0.0230
     13 C           8.5550    0.3120   21.4900 C.2     1  UNL1        0.2569
     14 O           8.9300    1.4100   21.0990 O.2     1  UNL1       -0.2722
     15 N           7.5870   -0.4090   20.8740 N.am    1  UNL1       -0.1770
     16 C           6.8010    0.0080   19.7820 C.ar    1  UNL1        0.0925
     17 C           5.6680    0.8410   20.0450 C.ar    1  UNL1        0.0184
     18 C           5.1710    1.1120   21.3480 C.ar    1  UNL1        0.0014
     19 C           4.0910    1.9270   21.5330 C.ar    1  UNL1        0.0000
     20 C           3.4520    2.5150   20.4490 C.ar    1  UNL1        0.0001
     21 C           3.8890    2.2830   19.1750 C.ar    1  UNL1        0.0016
     22 C           5.0010    1.4350   18.9360 C.ar    1  UNL1        0.0204
     23 C           5.4830    1.1340   17.6370 C.ar    1  UNL1        0.0989
     24 N           6.5090    0.3310   17.3900 N.ar    1  UNL1       -0.2410
     25 C           7.1390   -0.2100   18.4430 C.ar    1  UNL1        0.1154
@<TRIPOS>BOND
     1     2     1    1
     2     3     2   ar
     3     4     3   ar
     4     5     2   ar
     5     6     5   ar
     6     7     6   ar
     7     7     4   ar
     8     8     7    1
     9     9     8   am
    10    10     9    2
    11    11     9    1
    12    11     6    1
    13    11    12    1
    14    13    11    1
    15    14    13    2
    16    15    13   am
    17    16    15    1
    18    17    16   ar
    19    18    17   ar
    20    19    18   ar
    21    20    19   ar
    22    21    20   ar
    23    22    21   ar
    24    22    17   ar
    25    23    22   ar
    26    24    23   ar
    27    25    24   ar
    28    25    16   ar
