@<TRIPOS>MOLECULE
*****
 37 41 0 0 0
SMALL
GASTEIGER

@<TRIPOS>ATOM
      1 O           9.2890    1.2700   20.9110 O.2     1  UNL1       -0.2727
      2 C           8.8370    0.2620   21.4380 C.2     1  UNL1        0.2492
      3 N           7.6590   -0.2750   21.0330 N.am    1  UNL1       -0.1774
      4 C           6.8400    0.1710   19.9700 C.ar    1  UNL1        0.0925
      5 C           5.6820    0.9570   20.2710 C.ar    1  UNL1        0.0184
      6 C           5.2680    1.2820   21.5890 C.ar    1  UNL1        0.0014
      7 C           4.1580    2.0490   21.8090 C.ar    1  UNL1        0.0000
      8 C           3.4100    2.5350   20.7450 C.ar    1  UNL1        0.0001
      9 C           3.7680    2.2520   19.4580 C.ar    1  UNL1        0.0016
     10 C           4.9090    1.4580   19.1840 C.ar    1  UNL1        0.0204
     11 C           5.3350    1.1440   17.8740 C.ar    1  UNL1        0.0989
     12 N           6.4040    0.4150   17.5930 N.ar    1  UNL1       -0.2410
     13 C           7.1200   -0.0550   18.6240 C.ar    1  UNL1        0.1154
     14 C           9.5920   -0.4330   22.6030 C.3     1  UNL1        0.1046
     15 C          11.0810   -0.0740   22.6130 C.ar    1  UNL1        0.0209
     16 C          11.9850   -0.8400   21.8810 C.ar    1  UNL1        0.0106
     17 C          13.2980   -0.4280   21.7730 C.ar    1  UNL1        0.0576
     18 CL         14.3530   -1.2650   20.6670 Cl      1  UNL1       -0.0823
     19 C          13.7650    0.6950   22.4230 C.ar    1  UNL1        0.0145
     20 C          12.8940    1.4400   23.1950 C.ar    1  UNL1        0.0374
     21 C          11.5670    1.0550   23.2900 C.ar    1  UNL1        0.1350
     22 O          10.7800    1.8710   24.0700 O.3     1  UNL1       -0.4757
     23 C           9.3570    1.6000   24.1010 C.3     1  UNL1        0.2062
     24 C           9.0120    0.1370   23.9170 C.3     1  UNL1        0.0607
     25 C           9.4620   -1.9780   22.5360 C.3     1  UNL1        0.0982
     26 C           8.2780   -2.5520   23.2810 C.2     1  UNL1        0.2265
     27 O           7.1500   -2.4430   22.8220 O.2     1  UNL1       -0.2748
     28 N           8.5170   -3.2230   24.4290 N.am    1  UNL1       -0.2767
     29 C           8.0640   -2.7140   25.7330 C.3     1  UNL1        0.1107
     30 C           9.1480   -2.9090   26.7930 C.3     1  UNL1        0.0939
     31 C           9.0850   -4.5810   24.4420 C.3     1  UNL1        0.1107
     32 C          10.1200   -4.7320   25.5670 C.3     1  UNL1        0.0939
     33 N           9.5530   -4.3220   26.8650 N.3     1  UNL1       -0.2697
     34 C           8.4410   -5.1870   27.2960 C.3     1  UNL1        0.0749
     35 C           8.4580   -5.5540   28.7700 C.3     1  UNL1        0.0529
     36 C           7.0900   -5.5060   29.4290 C.3     1  UNL1        0.1835
     37 O           6.8230   -4.2300   30.0030 O.3     1  UNL1       -0.2204
@<TRIPOS>BOND
     1     2     1    2
     2     3     2   am
     3     4     3    1
     4     5     4   ar
     5     6     5   ar
     6     7     6   ar
     7     8     7   ar
     8     9     8   ar
     9    10     9   ar
    10    10     5   ar
    11    11    10   ar
    12    12    11   ar
    13    13    12   ar
    14    13     4   ar
    15    14     2    1
    16    15    14    1
    17    16    15   ar
    18    17    16   ar
    19    18    17    1
    20    19    17   ar
    21    20    19   ar
    22    21    20   ar
    23    21    15   ar
    24    22    21    1
    25    23    22    1
    26    24    23    1
    27    24    14    1
    28    14    25    1
    29    26    25    1
    30    27    26    2
    31    28    26   am
    32    29    28    1
    33    30    29    1
    34    31    28    1
    35    32    31    1
    36    33    32    1
    37    33    30    1
    38    34    33    1
    39    35    34    1
    40    36    35    1
    41    37    36    1
