@<TRIPOS>MOLECULE
*****
 30 33 0 0 0
SMALL
GASTEIGER

@<TRIPOS>ATOM
      1 O           9.5140    0.9590   21.1890 O.2     1  UNL1       -0.2723
      2 C           9.1260   -0.0550   21.7600 C.2     1  UNL1        0.2545
      3 C           8.1280   -1.0000   21.0920 C.3     1  UNL1        0.2141
      4 N           7.3900   -0.3340   20.0430 N.ar    1  UNL1       -0.2223
      5 C           6.2340    0.3830   20.1170 C.ar    1  UNL1        0.0994
      6 C           5.4260    0.7940   21.1680 C.ar    1  UNL1        0.0204
      7 C           4.3280    1.5910   20.8630 C.ar    1  UNL1        0.0016
      8 C           4.0470    1.9490   19.5460 C.ar    1  UNL1        0.0017
      9 C           4.8600    1.5240   18.5010 C.ar    1  UNL1        0.0225
     10 C           5.9650    0.7320   18.7980 C.ar    1  UNL1        0.1217
     11 N           6.9570    0.2170   17.9960 N.ar    1  UNL1       -0.1288
     12 N           7.8090   -0.4120   18.7570 N.ar    1  UNL1       -0.0634
     13 N           9.5510   -0.4030   23.0100 N.am    1  UNL1       -0.2527
     14 C          10.5990    0.4000   23.6290 C.3     1  UNL1        0.1253
     15 C          11.8630   -0.3880   23.8410 C.ar    1  UNL1        0.0050
     16 C          12.5930   -0.8450   22.7840 C.ar    1  UNL1        0.0328
     17 S          13.8600   -1.8600   23.2780 S.2     1  UNL1       -0.0862
     18 C          13.4600   -1.6990   24.9470 C.ar    1  UNL1        0.0352
     19 C          12.3710   -0.8700   25.0840 C.ar    1  UNL1        0.0049
     20 C           9.0500   -1.5280   23.7340 C.ar    1  UNL1        0.0543
     21 C           9.6720   -2.7700   23.6270 C.ar    1  UNL1        0.0162
     22 C           9.2770   -3.8190   24.4370 C.ar    1  UNL1        0.0179
     23 C           7.9970   -1.3660   24.6370 C.ar    1  UNL1        0.0162
     24 C           7.6020   -2.4190   25.4430 C.ar    1  UNL1        0.0179
     25 C           8.2530   -3.6470   25.3640 C.ar    1  UNL1        0.0751
     26 N           8.0080   -4.6780   26.3000 N.am    1  UNL1       -0.1610
     27 C           6.8770   -4.8900   27.0470 C.2     1  UNL1        0.3435
     28 O           5.7820   -4.3920   26.7940 O.2     1  UNL1       -0.2488
     29 N           7.0660   -5.7070   28.0960 N.am    1  UNL1       -0.1850
     30 C           5.9950   -6.0420   29.0190 C.3     1  UNL1        0.1403
@<TRIPOS>BOND
     1     2     1    2
     2     3     2    1
     3     4     3    1
     4     5     4   ar
     5     6     5   ar
     6     7     6   ar
     7     8     7   ar
     8     9     8   ar
     9    10     9   ar
    10    10     5   ar
    11    11    10   ar
    12    12    11   ar
    13    12     4   ar
    14    13     2   am
    15    14    13    1
    16    15    14    1
    17    16    15   ar
    18    17    16   ar
    19    18    17   ar
    20    19    18   ar
    21    19    15   ar
    22    20    13    1
    23    21    20   ar
    24    22    21   ar
    25    23    20   ar
    26    24    23   ar
    27    25    24   ar
    28    25    22   ar
    29    26    25    1
    30    27    26   am
    31    28    27    2
    32    29    27   am
    33    30    29    1
