@<TRIPOS>MOLECULE
*****
 23 25 0 0 0
SMALL
GASTEIGER

@<TRIPOS>ATOM
      1 O           9.5920    0.9900   21.0790 O.2     1  UNL1       -0.2715
      2 C           9.2550   -0.1570   21.3540 C.2     1  UNL1        0.2620
      3 N           8.1160   -0.7280   20.9030 N.am    1  UNL1       -0.1765
      4 C           7.2350   -0.2080   19.9280 C.ar    1  UNL1        0.0925
      5 C           6.0090    0.3980   20.3450 C.ar    1  UNL1        0.0184
      6 C           5.5850    0.4690   21.6930 C.ar    1  UNL1        0.0014
      7 C           4.4280    1.1060   22.0310 C.ar    1  UNL1        0.0000
      8 C           3.6340    1.6940   21.0600 C.ar    1  UNL1        0.0001
      9 C           3.9940    1.6450   19.7450 C.ar    1  UNL1        0.0016
     10 C           5.1910    1.0040   19.3500 C.ar    1  UNL1        0.0204
     11 C           5.6420    0.9640   18.0120 C.ar    1  UNL1        0.0989
     12 N           6.7830    0.4140   17.6300 N.ar    1  UNL1       -0.2410
     13 C           7.5420   -0.1570   18.5730 C.ar    1  UNL1        0.1154
     14 C          10.1260   -1.0540   22.2190 C.3     1  UNL1        0.1606
     15 N           9.3650   -1.8990   23.1320 N.3     1  UNL1       -0.2620
     16 C           8.7200   -1.1020   24.1760 C.3     1  UNL1        0.0943
     17 C           7.8070   -1.9830   25.0140 C.3     1  UNL1        0.1107
     18 C          10.2200   -2.9030   23.7740 C.3     1  UNL1        0.0943
     19 C           9.3700   -3.8590   24.6030 C.3     1  UNL1        0.1107
     20 N           8.5600   -3.1140   25.5800 N.am    1  UNL1       -0.2767
     21 C           8.4100   -3.4560   26.8880 C.2     1  UNL1        0.2262
     22 O           7.6880   -2.8010   27.6270 O.2     1  UNL1       -0.2749
     23 C           9.1240   -4.6750   27.3910 C.3     1  UNL1        0.0948
@<TRIPOS>BOND
     1     2     1    2
     2     3     2   am
     3     4     3    1
     4     5     4   ar
     5     6     5   ar
     6     7     6   ar
     7     8     7   ar
     8     9     8   ar
     9    10     9   ar
    10    10     5   ar
    11    11    10   ar
    12    12    11   ar
    13    13    12   ar
    14    13     4   ar
    15    14     2    1
    16    15    14    1
    17    16    15    1
    18    17    16    1
    19    18    15    1
    20    19    18    1
    21    20    19    1
    22    20    17    1
    23    21    20   am
    24    22    21    2
    25    23    21    1
