@<TRIPOS>MOLECULE
*****
 25 28 0 0 0
SMALL
GASTEIGER

@<TRIPOS>ATOM
      1 CL         14.1120   -1.5740   21.3470 Cl      1  UNL1       -0.0823
      2 C          12.8800   -0.7890   22.2930 C.ar    1  UNL1        0.0575
      3 C          11.5590   -1.1150   22.0700 C.ar    1  UNL1        0.0088
      4 C          13.2450    0.1710   23.2100 C.ar    1  UNL1        0.0126
      5 C          12.2610    0.8360   23.9200 C.ar    1  UNL1        0.0151
      6 C          10.9180    0.5270   23.7130 C.ar    1  UNL1        0.0443
      7 N           9.9090    1.1380   24.4590 N.pl3   1  UNL1       -0.3060
      8 C          10.1750    2.3890   25.1590 C.3     1  UNL1        0.1122
      9 C          10.5570   -0.4480   22.7730 C.ar    1  UNL1        0.0004
     10 C           9.0960   -0.7700   22.5220 C.3     1  UNL1        0.1036
     11 C           8.3500   -0.7160   23.8750 C.3     1  UNL1        0.0350
     12 C           8.5450    0.6300   24.5820 C.3     1  UNL1        0.0917
     13 C           8.4660    0.1320   21.4560 C.2     1  UNL1        0.2493
     14 O           8.7130    1.3340   21.3900 O.2     1  UNL1       -0.2726
     15 N           7.7200   -0.5210   20.5340 N.am    1  UNL1       -0.1774
     16 C           6.6780   -0.0700   19.6860 C.ar    1  UNL1        0.0925
     17 C           5.7530    0.9590   20.0820 C.ar    1  UNL1        0.0184
     18 C           5.4580    1.2820   21.4340 C.ar    1  UNL1        0.0014
     19 C           4.4780    2.1830   21.7480 C.ar    1  UNL1        0.0000
     20 C           3.7460    2.8100   20.7480 C.ar    1  UNL1        0.0001
     21 C           3.9900    2.5370   19.4330 C.ar    1  UNL1        0.0016
     22 C           4.9880    1.6000   19.0630 C.ar    1  UNL1        0.0204
     23 C           5.1990    1.1960   17.7260 C.ar    1  UNL1        0.0989
     24 N           6.0330    0.2390   17.3610 N.ar    1  UNL1       -0.2410
     25 C           6.7230   -0.3790   18.3270 C.ar    1  UNL1        0.1154
@<TRIPOS>BOND
     1     2     1    1
     2     3     2   ar
     3     4     2   ar
     4     5     4   ar
     5     6     5   ar
     6     7     6    1
     7     8     7    1
     8     9     6   ar
     9     9     3   ar
    10    10     9    1
    11    11    10    1
    12    12    11    1
    13    12     7    1
    14    10    13    1
    15    14    13    2
    16    15    13   am
    17    16    15    1
    18    17    16   ar
    19    18    17   ar
    20    19    18   ar
    21    20    19   ar
    22    21    20   ar
    23    22    21   ar
    24    22    17   ar
    25    23    22   ar
    26    24    23   ar
    27    25    24   ar
    28    25    16   ar
