@<TRIPOS>MOLECULE
*****
 18 19 0 0 0
SMALL
GASTEIGER

@<TRIPOS>ATOM
      1 O           9.3730    0.6160   21.0330 O.2     1  UNL1       -0.2726
      2 C           8.7720   -0.4050   21.3620 C.2     1  UNL1        0.2500
      3 N           7.5380   -0.7290   20.9270 N.am    1  UNL1       -0.1777
      4 C           6.8290   -0.0570   19.9110 C.ar    1  UNL1        0.0885
      5 C           7.2570   -0.0940   18.5830 C.ar    1  UNL1        0.1151
      6 N           6.6200    0.5330   17.5900 N.ar    1  UNL1       -0.2410
      7 C           5.5150    1.2190   17.9030 C.ar    1  UNL1        0.0987
      8 C           5.0220    1.3250   19.1880 C.ar    1  UNL1        0.0177
      9 C           5.6780    0.6850   20.2310 C.ar    1  UNL1       -0.0034
     10 C           5.1920    0.8350   21.6500 C.3     1  UNL1        0.0325
     11 C           9.3740   -1.4160   22.3160 C.3     1  UNL1        0.1136
     12 C          10.7320   -0.9620   22.7950 C.ar    1  UNL1       -0.0098
     13 C          10.8440   -0.1860   23.9410 C.ar    1  UNL1        0.0382
     14 C          12.0840    0.2610   24.3670 C.ar    1  UNL1        0.1954
     15 O          12.1590    0.9790   25.5200 O.3     1  UNL1       -0.2866
     16 C          13.2280   -0.0440   23.6430 C.ar    1  UNL1        0.0420
     17 C          13.1200   -0.8250   22.5040 C.ar    1  UNL1        0.0030
     18 C          11.8820   -1.2860   22.0900 C.ar    1  UNL1       -0.0036
@<TRIPOS>BOND
     1     2     1    2
     2     3     2   am
     3     4     3    1
     4     5     4   ar
     5     6     5   ar
     6     7     6   ar
     7     8     7   ar
     8     9     8   ar
     9     9     4   ar
    10    10     9    1
    11    11     2    1
    12    12    11    1
    13    13    12   ar
    14    14    13   ar
    15    15    14    1
    16    16    14   ar
    17    17    16   ar
    18    18    12   ar
    19    18    17   ar
