@<TRIPOS>MOLECULE
*****
 27 29 0 0 0
SMALL
GASTEIGER

@<TRIPOS>ATOM
      1 O           8.7890    1.0000   20.8530 O.2     1  UNL1       -0.2726
      2 C           8.2950   -0.0220   21.3060 C.2     1  UNL1        0.2500
      3 N           7.1530   -0.5610   20.8290 N.am    1  UNL1       -0.1777
      4 C           6.4330    0.0170   19.7510 C.ar    1  UNL1        0.0885
      5 C           5.2980    0.7980   20.0210 C.ar    1  UNL1       -0.0034
      6 C           4.7760    0.9860   21.4230 C.3     1  UNL1        0.0325
      7 C           4.6930    1.4400   18.9460 C.ar    1  UNL1        0.0177
      8 C           5.2270    1.3010   17.6770 C.ar    1  UNL1        0.0987
      9 N           6.3080    0.5590   17.4070 N.ar    1  UNL1       -0.2410
     10 C           6.8850   -0.0770   18.4330 C.ar    1  UNL1        0.1151
     11 C           8.9370   -0.7600   22.4640 C.3     1  UNL1        0.1135
     12 C          10.3300   -0.2440   22.7620 C.ar    1  UNL1       -0.0122
     13 C          11.4290   -1.0850   22.6430 C.ar    1  UNL1        0.0076
     14 C          12.6940   -0.5820   22.8670 C.ar    1  UNL1        0.0574
     15 CL         14.0490   -1.6750   22.8580 Cl      1  UNL1       -0.0823
     16 C          12.9090    0.7450   23.1830 C.ar    1  UNL1        0.0114
     17 C          10.5360    1.0850   23.1170 C.ar    1  UNL1       -0.0037
     18 C          11.8160    1.6030   23.3210 C.ar    1  UNL1        0.0028
     19 C          12.0190    3.0300   23.7020 C.ar    1  UNL1        0.0297
     20 C          13.1530    3.7020   23.2440 C.ar    1  UNL1        0.0021
     21 C          13.4250    5.0000   23.6470 C.ar    1  UNL1       -0.0019
     22 C          11.1780    3.7440   24.5480 C.ar    1  UNL1        0.1670
     23 F          10.0920    3.1420   25.0600 F       1  UNL1       -0.2018
     24 C          11.4470    5.0380   24.9300 C.ar    1  UNL1        0.1634
     25 F          10.5780    5.6760   25.7380 F       1  UNL1       -0.2021
     26 C          12.5870    5.6970   24.5220 C.ar    1  UNL1        0.0079
     27 C          12.9850    7.0490   25.0550 C.3     1  UNL1        0.0335
@<TRIPOS>BOND
     1     2     1    2
     2     3     2   am
     3     4     3    1
     4     5     4   ar
     5     6     5    1
     6     7     5   ar
     7     8     7   ar
     8     9     8   ar
     9    10     9   ar
    10    10     4   ar
    11    11     2    1
    12    12    11    1
    13    13    12   ar
    14    14    13   ar
    15    15    14    1
    16    16    14   ar
    17    17    12   ar
    18    18    17   ar
    19    18    16   ar
    20    19    18    1
    21    20    19   ar
    22    21    20   ar
    23    22    19   ar
    24    23    22    1
    25    24    22   ar
    26    25    24    1
    27    26    24   ar
    28    26    21   ar
    29    27    26    1
