@<TRIPOS>MOLECULE
*****
 17 18 0 0 0
SMALL
GASTEIGER

@<TRIPOS>ATOM
      1 CL         13.6820   -1.7490   22.0380 Cl      1  UNL1       -0.0822
      2 C          12.3890   -0.6700   22.4400 C.ar    1  UNL1        0.0590
      3 C          12.6810    0.5220   23.0690 C.ar    1  UNL1        0.0115
      4 C          11.6490    1.4120   23.3220 C.ar    1  UNL1        0.0022
      5 C          10.3540    1.1100   22.9360 C.ar    1  UNL1        0.0167
      6 C          11.1050   -1.0080   22.0670 C.ar    1  UNL1        0.0280
      7 C          10.0840   -0.0980   22.3000 C.ar    1  UNL1        0.0742
      8 N           8.7910   -0.4360   21.8680 N.am    1  UNL1       -0.1789
      9 C           7.9330    0.3960   21.2600 C.2     1  UNL1        0.2501
     10 O           8.1970    1.5640   20.9840 O.2     1  UNL1       -0.2726
     11 C           6.5910   -0.2040   20.9170 C.3     1  UNL1        0.1163
     12 C           6.2460    0.1900   19.5040 C.ar    1  UNL1        0.0233
     13 C           5.3240    1.1370   19.0940 C.ar    1  UNL1        0.0789
     14 C           4.4950    2.0490   19.9410 C.3     1  UNL1        0.0537
     15 C           6.8260   -0.2890   18.3500 C.ar    1  UNL1        0.1195
     16 N           6.2470    0.3490   17.3310 N.ar    1  UNL1       -0.1470
     17 N           5.3060    1.2280   17.7590 N.ar    1  UNL1       -0.1526
@<TRIPOS>BOND
     1     2     1    1
     2     3     2   ar
     3     4     3   ar
     4     5     4   ar
     5     6     2   ar
     6     7     5   ar
     7     7     6   ar
     8     8     7    1
     9     9     8   am
    10    10     9    2
    11    11     9    1
    12    12    11    1
    13    13    12   ar
    14    14    13    1
    15    15    12   ar
    16    16    15   ar
    17    17    13   ar
    18    17    16   ar
