@<TRIPOS>MOLECULE
*****
 19 20 0 0 0
SMALL
GASTEIGER

@<TRIPOS>ATOM
      1 N           5.4990   -5.3540   24.3700 N.3     1  UNL1       -0.1520
      2 C           4.2000   -2.6040   26.0450 C.ar    1  UNL1        0.1586
      3 O           5.8180   -5.0600   26.7900 O.2     1  UNL1       -0.1527
      4 C           3.3650   -1.5100   26.0810 C.ar    1  UNL1        0.0310
      5 C           6.6980   -4.4970   20.5550 C.2     1  UNL1        0.2262
      6 C           7.9070   -3.6210   20.3340 C.3     1  UNL1        0.0948
      7 C           2.0020   -1.7020   25.9550 C.ar    1  UNL1        0.0024
      8 C           1.4800   -2.9660   25.7910 C.ar    1  UNL1        0.0015
      9 C           2.3190   -4.0670   25.7530 C.ar    1  UNL1        0.0222
     10 C           3.6910   -3.8940   25.8740 C.ar    1  UNL1        0.1495
     11 C           6.5510   -4.3640   24.0950 C.3     1  UNL1        0.1173
     12 C           7.3920   -4.8480   22.9440 C.3     1  UNL1        0.1126
     13 C           5.4910   -6.0510   22.0500 C.3     1  UNL1        0.1126
     14 C           4.6370   -5.5750   23.1960 C.3     1  UNL1        0.1173
     15 F           5.5310   -2.4080   26.1710 F       1  UNL1       -0.2028
     16 N           6.5500   -5.0810   21.7680 N.am    1  UNL1       -0.2766
     17 O           3.9690   -6.4660   25.9520 O.2     1  UNL1       -0.1527
     18 O           5.8900   -4.6610   19.6490 O.2     1  UNL1       -0.2749
     19 S           4.7750   -5.2920   25.8400 S.O2    1  UNL1        0.0656
@<TRIPOS>BOND
     1     4     2   ar
     2     6     5    1
     3     7     4   ar
     4     8     7   ar
     5     9     8   ar
     6    10     9   ar
     7    10     2   ar
     8    11     1    1
     9    12    11    1
    10    14    13    1
    11    14     1    1
    12    15     2    1
    13    16    13    1
    14    16     5   am
    15    16    12    1
    16    18     5    2
    17    19    17    2
    18    19    10    1
    19    19     3    2
    20    19     1    1
