@<TRIPOS>MOLECULE
*****
 18 19 0 0 0
SMALL
GASTEIGER

@<TRIPOS>ATOM
      1 C          10.6630   -4.4420   25.8720 C.3     1  UNL1        0.0310
      2 C           9.5630   -4.4800   24.8760 C.ar    1  UNL1       -0.0218
      3 C           8.8830   -5.6570   24.6420 C.ar    1  UNL1       -0.0030
      4 C           7.8650   -5.7260   23.7170 C.ar    1  UNL1        0.0146
      5 C           7.5090   -4.5860   23.0020 C.ar    1  UNL1        0.0541
      6 C           6.6730   -4.3500   20.7430 C.2     1  UNL1        0.2301
      7 C           7.9600   -3.6200   20.4340 C.3     1  UNL1        0.0952
      8 C           5.1240   -5.0540   22.5270 C.3     1  UNL1        0.1272
      9 C           4.9180   -4.5550   23.9520 C.2     1  UNL1        0.0151
     10 C           4.2940   -5.4010   24.7620 C.2     1  UNL1        0.1199
     11 C           4.9650   -6.5800   22.5520 C.3     1  UNL1        0.1805
     12 C           8.1790   -3.3850   23.2330 C.ar    1  UNL1        0.0146
     13 C           9.2050   -3.3510   24.1550 C.ar    1  UNL1       -0.0030
     14 N           6.4420   -4.6530   22.0520 N.am    1  UNL1       -0.2545
     15 O           5.8730   -4.6400   19.8650 O.2     1  UNL1       -0.2745
     16 O           2.5610   -6.9890   23.5880 O.2     1  UNL1       -0.1685
     17 O           4.4780   -8.0080   24.7460 O.2     1  UNL1       -0.1685
     18 S           3.9460   -6.9190   23.9730 S.O2    1  UNL1        0.0116
@<TRIPOS>BOND
     1     2     1    1
     2     3     2   ar
     3     4     3   ar
     4     5     4   ar
     5     7     6    1
     6     9     8    1
     7    10     9    2
     8    11     8    1
     9    12     5   ar
    10    13    12   ar
    11    13     2   ar
    12     8    14    1
    13    14     6   am
    14    14     5    1
    15    15     6    2
    16    18    17    2
    17    18    16    2
    18    18    11    1
    19    18    10    1
