@<TRIPOS>MOLECULE
*****
 25 27 0 0 0
SMALL
GASTEIGER

@<TRIPOS>ATOM
      1 N          11.0760    5.0810   22.8870 N.3     1  UNL1       -0.1893
      2 N           7.0660   -2.2540   20.8870 N.3     1  UNL1       -0.2455
      3 N           8.9350   -1.8030   23.0190 N.3     1  UNL1       -0.2703
      4 C          10.1080    5.7350   23.5320 C.3     1  UNL1        0.2257
      5 C          12.4800    0.9080   23.1030 C.3     1  UNL1        0.0175
      6 C           7.9360   -1.0730   20.8920 C.3     1  UNL1        0.0917
      7 O           6.0310   -3.9340   19.7930 O.3     1  UNL1       -0.2050
      8 C          10.1730   -2.1030   23.7600 C.3     1  UNL1        0.0735
      9 C          12.3640    4.7900   23.4990 C.3     1  UNL1        0.0914
     10 C          11.4250    0.1180   23.6020 C.3     1  UNL1        0.0741
     11 C          13.4840   -1.0750   22.1860 C.3     1  UNL1        0.0001
     12 C          10.9890    2.2420   24.1250 C.3     1  UNL1        0.0887
     13 C          12.1670    2.2760   23.4340 C.3     1  UNL1        0.0202
     14 C           6.7240   -2.6720   22.2550 C.3     1  UNL1        0.0917
     15 C           6.7300   -2.9310   19.7660 C.3     1  UNL1        0.2128
     16 C          13.5160    0.2940   22.3990 C.3     1  UNL1        0.0014
     17 C           8.0040   -2.9590   23.0550 C.3     1  UNL1        0.0897
     18 C           9.2200   -1.4150   21.6150 C.3     1  UNL1        0.0897
     19 C           7.2750   -2.4100   18.4480 C.3     1  UNL1        0.0542
     20 C           8.8160    5.9160   22.7840 C.3     1  UNL1        0.0555
     21 N          10.5320    0.9530   24.2300 N.3     1  UNL1       -0.2194
     22 O          10.2650    6.1520   24.6780 O.3     1  UNL1       -0.2037
     23 C          11.3680   -1.2640   23.3660 C.3     1  UNL1        0.0320
     24 C          12.9510    3.4830   23.0080 C.3     1  UNL1        0.0204
     25 C          12.4260   -1.8390   22.6580 C.3     1  UNL1        0.0028
@<TRIPOS>BOND
     1     4     1    1
     2     6     2    1
     3     8     3    1
     4     9     1    1
     5    10     5    1
     6    13    12    1
     7    13     5    1
     8    14     2    1
     9    15     7    1
    10    15     2    1
    11    16    11    1
    12    16     5    1
    13    17    14    1
    14    17     3    1
    15    18     6    1
    16    18     3    1
    17    19    15    1
    18    20     4    1
    19    21    12    1
    20    10    21    1
    21    22     4    1
    22    23     8    1
    23    23    10    1
    24    13    24    1
    25    24     9    1
    26    25    23    1
    27    25    11    1
