@<TRIPOS>MOLECULE
*****
 16 17 0 0 0
SMALL
GASTEIGER

@<TRIPOS>ATOM
      1 N           7.0550   -2.9940   21.1070 N.am    1  UNL1       -0.2760
      2 C           7.5290   -2.6020   18.6980 C.3     1  UNL1        0.0948
      3 O           5.9750   -4.1890   19.5540 O.2     1  UNL1       -0.2749
      4 C           6.8020   -3.3240   19.8220 C.2     1  UNL1        0.2262
      5 C           9.3680    0.4490   26.2740 C.ar    1  UNL1        0.1798
      6 C           6.3970   -3.7270   22.1930 C.3     1  UNL1        0.1149
      7 C           7.3700   -4.0860   23.2940 C.3     1  UNL1        0.1153
      8 C           8.7770   -2.2180   22.7250 C.3     1  UNL1        0.1153
      9 C           7.8730   -1.8600   21.5600 C.3     1  UNL1        0.1149
     10 C           7.4610   -2.1720   24.8190 C.2     1  UNL1        0.2839
     11 C           8.3070   -1.3780   25.6770 C.ar    1  UNL1        0.1987
     12 C           8.9370   -1.6670   26.8370 C.ar    1  UNL1        0.0455
     13 C           9.6280   -0.4990   27.2370 C.ar    1  UNL1        0.0440
     14 N           8.0100   -2.8680   23.7910 N.am    1  UNL1       -0.2701
     15 O           6.2600   -2.2420   25.0690 O.2     1  UNL1       -0.2666
     16 O           8.5550   -0.0790   25.3180 O.2     1  UNL1       -0.4458
@<TRIPOS>BOND
     1     4     3    2
     2     4     2    1
     3     4     1   am
     4     6     1    1
     5     7     6    1
     6     9     1    1
     7     9     8    1
     8    11    10    1
     9    12    11   ar
    10    13    12   ar
    11    13     5   ar
    12    14    10   am
    13    14     8    1
    14    14     7    1
    15    15    10    2
    16    16    11   ar
    17    16     5   ar
