
     RDKit          3D

 29 32  0  0  0  0  0  0  0  0999 V2000
   14.0140   -1.4350   21.3580 Cl  0  0  0  0  0  0  0  0  0  0  0  0
   12.7420   -0.7530   22.3390 C   0  0  0  0  0  0  0  0  0  0  0  0
   11.4430   -1.1910   22.1560 C   0  0  0  0  0  0  0  0  0  0  0  0
   13.0490    0.2370   23.2490 C   0  0  0  0  0  0  0  0  0  0  0  0
   12.0340    0.7870   24.0110 C   0  0  0  0  0  0  0  0  0  0  0  0
   10.7090    0.3780   23.8470 C   0  0  0  0  0  0  0  0  0  0  0  0
    9.6280    0.9900   24.7120 C   0  0  0  0  0  0  0  0  0  0  0  0
    8.2820    0.7830   24.1540 N   0  0  0  0  0  0  0  0  0  0  0  0
    7.2200    1.3290   24.9920 C   0  0  0  0  0  0  0  0  0  0  0  0
    6.7370    2.7100   24.5770 C   0  0  0  0  0  0  0  0  0  0  0  0
    5.9510    3.3260   25.2940 O   0  0  0  0  0  0  0  0  0  0  0  0
    7.1740    3.1940   23.4160 N   0  0  0  0  0  0  0  0  0  0  0  0
    6.5980    4.3710   22.7910 C   0  0  0  0  0  0  0  0  0  0  0  0
   10.4080   -0.6040   22.8860 C   0  0  0  0  0  0  0  0  0  0  0  0
    8.9580   -0.9370   22.5770 C   0  0  1  0  0  0  0  0  0  0  0  0
    8.0810   -0.6210   23.7890 C   0  0  0  0  0  0  0  0  0  0  0  0
    8.4530   -0.0390   21.4460 C   0  0  0  0  0  0  0  0  0  0  0  0
    8.6840    1.1740   21.4210 O   0  0  0  0  0  0  0  0  0  0  0  0
    7.6710   -0.6640   20.5340 N   0  0  0  0  0  0  0  0  0  0  0  0
    6.6800   -0.1680   19.6490 C   0  0  0  0  0  0  0  0  0  0  0  0
    5.7010    0.7950   20.0720 C   0  0  0  0  0  0  0  0  0  0  0  0
    5.2960    0.9620   21.4220 C   0  0  0  0  0  0  0  0  0  0  0  0
    4.2290    1.7520   21.7460 C   0  0  0  0  0  0  0  0  0  0  0  0
    3.5270    2.4380   20.7630 C   0  0  0  0  0  0  0  0  0  0  0  0
    3.8860    2.3290   19.4510 C   0  0  0  0  0  0  0  0  0  0  0  0
    4.9650    1.4930   19.0650 C   0  0  0  0  0  0  0  0  0  0  0  0
    5.2550    1.1970   17.7120 C   0  0  0  0  0  0  0  0  0  0  0  0
    6.1400    0.2960   17.3220 N   0  0  0  0  0  0  0  0  0  0  0  0
    6.8130   -0.3620   18.2740 C   0  0  0  0  0  0  0  0  0  0  0  0
  2  1  1  0
  3  2  2  0
  4  2  1  0
  5  4  2  0
  6  5  1  0
  7  6  1  0
  8  7  1  0
  9  8  1  0
 10  9  1  0
 11 10  2  0
 12 10  1  0
 13 12  1  0
 14  6  2  0
 14  3  1  0
 15 14  1  0
 16 15  1  0
 16  8  1  0
 15 17  1  6
 18 17  2  0
 19 17  1  0
 20 19  1  0
 21 20  1  0
 22 21  2  0
 23 22  1  0
 24 23  2  0
 25 24  1  0
 26 25  2  0
 26 21  1  0
 27 26  1  0
 28 27  2  0
 29 28  1  0
 29 20  2  0
M  END
