@<TRIPOS>MOLECULE
*****
 29 32 0 0 0
SMALL
GASTEIGER

@<TRIPOS>ATOM
      1 CL         14.0140   -1.4350   21.3580 Cl      1  UNL1       -0.0823
      2 C          12.7420   -0.7530   22.3390 C.ar    1  UNL1        0.0574
      3 C          11.4430   -1.1910   22.1560 C.ar    1  UNL1        0.0074
      4 C          13.0490    0.2370   23.2490 C.ar    1  UNL1        0.0111
      5 C          12.0340    0.7870   24.0110 C.ar    1  UNL1       -0.0024
      6 C          10.7090    0.3780   23.8470 C.ar    1  UNL1       -0.0095
      7 C           9.6280    0.9900   24.7120 C.3     1  UNL1        0.0992
      8 N           8.2820    0.7830   24.1540 N.3     1  UNL1       -0.2604
      9 C           7.2200    1.3290   24.9920 C.3     1  UNL1        0.1605
     10 C           6.7370    2.7100   24.5770 C.2     1  UNL1        0.2578
     11 O           5.9510    3.3260   25.2940 O.2     1  UNL1       -0.2718
     12 N           7.1740    3.1940   23.4160 N.am    1  UNL1       -0.2024
     13 C           6.5980    4.3710   22.7910 C.3     1  UNL1        0.1385
     14 C          10.4080   -0.6040   22.8860 C.ar    1  UNL1       -0.0143
     15 C           8.9580   -0.9370   22.5770 C.3     1  UNL1        0.1164
     16 C           8.0810   -0.6210   23.7890 C.3     1  UNL1        0.0864
     17 C           8.4530   -0.0390   21.4460 C.2     1  UNL1        0.2506
     18 O           8.6840    1.1740   21.4210 O.2     1  UNL1       -0.2726
     19 N           7.6710   -0.6640   20.5340 N.am    1  UNL1       -0.1773
     20 C           6.6800   -0.1680   19.6490 C.ar    1  UNL1        0.0925
     21 C           5.7010    0.7950   20.0720 C.ar    1  UNL1        0.0184
     22 C           5.2960    0.9620   21.4220 C.ar    1  UNL1        0.0014
     23 C           4.2290    1.7520   21.7460 C.ar    1  UNL1        0.0000
     24 C           3.5270    2.4380   20.7630 C.ar    1  UNL1        0.0001
     25 C           3.8860    2.3290   19.4510 C.ar    1  UNL1        0.0016
     26 C           4.9650    1.4930   19.0650 C.ar    1  UNL1        0.0204
     27 C           5.2550    1.1970   17.7120 C.ar    1  UNL1        0.0989
     28 N           6.1400    0.2960   17.3220 N.ar    1  UNL1       -0.2410
     29 C           6.8130   -0.3620   18.2740 C.ar    1  UNL1        0.1154
@<TRIPOS>BOND
     1     2     1    1
     2     3     2   ar
     3     4     2   ar
     4     5     4   ar
     5     6     5   ar
     6     7     6    1
     7     8     7    1
     8     9     8    1
     9    10     9    1
    10    11    10    2
    11    12    10   am
    12    13    12    1
    13    14     6   ar
    14    14     3   ar
    15    15    14    1
    16    16    15    1
    17    16     8    1
    18    15    17    1
    19    18    17    2
    20    19    17   am
    21    20    19    1
    22    21    20   ar
    23    22    21   ar
    24    23    22   ar
    25    24    23   ar
    26    25    24   ar
    27    26    25   ar
    28    26    21   ar
    29    27    26   ar
    30    28    27   ar
    31    29    28   ar
    32    29    20   ar
