@<TRIPOS>MOLECULE
*****
 29 31 0 0 0
SMALL
GASTEIGER

@<TRIPOS>ATOM
      1 CL         13.5520   -1.6650   21.8500 Cl      1  UNL1       -0.0814
      2 C          12.2780   -0.7860   22.6270 C.ar    1  UNL1        0.0679
      3 C          12.5610    0.2780   23.4660 C.ar    1  UNL1        0.0682
      4 CL         14.1870    0.7940   23.7410 Cl      1  UNL1       -0.0814
      5 C          11.5350    0.9790   24.0590 C.ar    1  UNL1        0.0120
      6 C          10.2260    0.6210   23.8130 C.ar    1  UNL1       -0.0013
      7 C          10.9680   -1.1450   22.3670 C.ar    1  UNL1        0.0100
      8 C           9.9250   -0.4360   22.9610 C.ar    1  UNL1        0.0047
      9 C           8.4580   -0.8050   22.6880 C.3     1  UNL1        0.1674
     10 C           8.3820   -2.2830   22.2860 C.3     1  UNL1        0.0357
     11 N           7.6790   -0.6330   23.9250 N.am    1  UNL1       -0.1936
     12 C           7.0120    0.4210   24.4260 C.2     1  UNL1        0.2722
     13 O           7.0370    1.5450   23.9330 O.2     1  UNL1       -0.2706
     14 C           6.2120    0.1810   25.6860 C.3     1  UNL1        0.2288
     15 O           5.8320   -1.1820   25.6660 O.3     1  UNL1       -0.3417
     16 C           5.3500   -1.6390   26.9220 C.3     1  UNL1        0.1748
     17 C           7.9430    0.1480   21.5560 C.2     1  UNL1        0.2673
     18 O           8.1570    1.3530   21.5860 O.2     1  UNL1       -0.2708
     19 N           7.3430   -0.4460   20.5030 N.am    1  UNL1       -0.1760
     20 C           6.3860    0.0140   19.5690 C.ar    1  UNL1        0.0925
     21 C           5.3990    0.9930   19.9330 C.ar    1  UNL1        0.0184
     22 C           4.9470    1.2060   21.2620 C.ar    1  UNL1        0.0014
     23 C           3.9080    2.0520   21.5270 C.ar    1  UNL1        0.0000
     24 C           3.2620    2.7210   20.5020 C.ar    1  UNL1        0.0001
     25 C           3.6600    2.5590   19.2090 C.ar    1  UNL1        0.0016
     26 C           4.7360    1.6940   18.8870 C.ar    1  UNL1        0.0204
     27 C           5.1150    1.4050   17.5580 C.ar    1  UNL1        0.0989
     28 N           6.0040    0.4880   17.2210 N.ar    1  UNL1       -0.2410
     29 C           6.5880   -0.1980   18.2090 C.ar    1  UNL1        0.1154
@<TRIPOS>BOND
     1     2     1    1
     2     3     2   ar
     3     4     3    1
     4     5     3   ar
     5     6     5   ar
     6     7     2   ar
     7     8     6   ar
     8     8     7   ar
     9     9     8    1
    10     9    10    1
    11    11     9    1
    12    12    11   am
    13    13    12    2
    14    14    12    1
    15    15    14    1
    16    16    15    1
    17    17     9    1
    18    18    17    2
    19    19    17   am
    20    20    19    1
    21    21    20   ar
    22    22    21   ar
    23    23    22   ar
    24    24    23   ar
    25    25    24   ar
    26    26    25   ar
    27    26    21   ar
    28    27    26   ar
    29    28    27   ar
    30    29    28   ar
    31    29    20   ar
