@<TRIPOS>MOLECULE
*****
 18 19 0 0 0
SMALL
GASTEIGER

@<TRIPOS>ATOM
      1 N           8.5910    0.6370   24.9500 N.am    1  UNL1       -0.1836
      2 C           7.8470    1.3990   24.0470 C.2     1  UNL1        0.3237
      3 O           8.3200    2.3970   23.4800 O.2     1  UNL1       -0.2508
      4 C           9.9750    0.9680   25.2760 C.3     1  UNL1        0.1431
      5 C           4.1890    0.2930   24.7610 C.3     1  UNL1        0.1637
      6 C           4.3610    0.9880   22.4890 C.3     1  UNL1        0.1637
      7 C           5.7570    1.5950   22.7340 C.3     1  UNL1        0.1271
      8 C          10.8950    0.3440   24.2640 C.ar    1  UNL1       -0.0005
      9 C          12.0590    1.0040   23.8800 C.ar    1  UNL1       -0.0019
     10 C          12.9070    0.4250   22.9390 C.ar    1  UNL1        0.0100
     11 C          12.5700   -0.8110   22.3760 C.ar    1  UNL1        0.0684
     12 C          13.4080   -1.3840   21.3940 C.1     1  UNL1        0.1004
     13 C          11.4100   -1.4790   22.7610 C.ar    1  UNL1        0.0100
     14 C          10.5740   -0.9000   23.7070 C.ar    1  UNL1       -0.0019
     15 C           5.6220    0.7890   25.0630 C.3     1  UNL1        0.1271
     16 N          14.1100   -1.8210   20.5920 N.1     1  UNL1       -0.1908
     17 N           6.4770    0.9020   23.8360 N.am    1  UNL1       -0.2577
     18 O           3.6160    1.0220   23.6900 O.3     1  UNL1       -0.3501
@<TRIPOS>BOND
     1     2     1   am
     2     3     2    2
     3     4     1    1
     4     7     6    1
     5     8     4    1
     6     9     8   ar
     7    10     9   ar
     8    11    10   ar
     9    12    11    1
    10    13    11   ar
    11    14     8   ar
    12    14    13   ar
    13    15     5    1
    14    16    12    3
    15    17    15    1
    16    17     7    1
    17    17     2   am
    18    18     6    1
    19    18     5    1
