@<TRIPOS>MOLECULE
*****
 20 22 0 0 0
SMALL
GASTEIGER

@<TRIPOS>ATOM
      1 CL         14.1250   -1.4150   21.2370 Cl      1  UNL1       -0.0823
      2 C          12.8910   -0.7350   22.2580 C.ar    1  UNL1        0.0574
      3 C          13.2170    0.2910   23.1210 C.ar    1  UNL1        0.0114
      4 C          12.2470    0.7580   23.9950 C.ar    1  UNL1        0.0006
      5 C          10.9720    0.2180   23.9730 C.ar    1  UNL1       -0.0038
      6 C          11.6200   -1.2670   22.2090 C.ar    1  UNL1        0.0076
      7 C          10.6340   -0.7670   23.0520 C.ar    1  UNL1       -0.0137
      8 C           9.1710   -1.1170   22.7980 C.3     1  UNL1        0.0896
      9 C           8.2020   -1.4510   23.9290 C.3     1  UNL1        0.0136
     10 C           8.6310   -2.5300   22.9970 C.3     1  UNL1        0.0136
     11 C           8.5690   -0.2990   21.6390 C.2     1  UNL1        0.2485
     12 O           9.0380    0.7900   21.3370 O.2     1  UNL1       -0.2727
     13 N           7.5150   -0.8280   20.9890 N.am    1  UNL1       -0.1777
     14 C           6.7950   -0.1360   19.9880 C.ar    1  UNL1        0.0885
     15 C           5.6230    0.5650   20.3240 C.ar    1  UNL1       -0.0034
     16 C           5.0930    0.6050   21.7340 C.3     1  UNL1        0.0325
     17 C           7.2480   -0.0860   18.6710 C.ar    1  UNL1        0.1151
     18 N           6.6340    0.6010   17.7050 N.ar    1  UNL1       -0.2410
     19 C           5.5120    1.2550   18.0330 C.ar    1  UNL1        0.0987
     20 C           4.9800    1.2610   19.3060 C.ar    1  UNL1        0.0177
@<TRIPOS>BOND
     1     2     1    1
     2     3     2   ar
     3     4     3   ar
     4     5     4   ar
     5     6     2   ar
     6     7     6   ar
     7     7     5   ar
     8     8     7    1
     9     9     8    1
    10    10     9    1
    11    10     8    1
    12     8    11    1
    13    12    11    2
    14    13    11   am
    15    14    13    1
    16    15    14   ar
    17    16    15    1
    18    17    14   ar
    19    18    17   ar
    20    19    18   ar
    21    20    19   ar
    22    20    15   ar
