@<TRIPOS>MOLECULE
*****
 19 20 0 0 0
SMALL
GASTEIGER

@<TRIPOS>ATOM
      1 CL         13.6310   -1.9280   21.3350 Cl      1  UNL1       -0.0823
      2 C          12.4700   -1.0550   22.2980 C.ar    1  UNL1        0.0574
      3 C          12.9150   -0.1170   23.2050 C.ar    1  UNL1        0.0114
      4 C          11.9870    0.5060   24.0250 C.ar    1  UNL1        0.0006
      5 C          10.6380    0.2110   23.9020 C.ar    1  UNL1       -0.0037
      6 C          11.1280   -1.3530   22.1590 C.ar    1  UNL1        0.0076
      7 C          10.1920   -0.7000   22.9550 C.ar    1  UNL1       -0.0122
      8 C           8.7150   -0.9090   22.7140 C.3     1  UNL1        0.1135
      9 C           8.2170   -0.0950   21.5350 C.2     1  UNL1        0.2500
     10 O           8.8600    0.8500   21.0820 O.2     1  UNL1       -0.2726
     11 N           7.0270   -0.5010   21.0310 N.am    1  UNL1       -0.1781
     12 C           6.3610    0.1480   19.9460 C.ar    1  UNL1        0.0829
     13 C           5.3180    1.0400   20.2200 C.ar    1  UNL1       -0.0038
     14 C           4.8660    1.3370   21.6270 C.3     1  UNL1        0.0325
     15 C           6.7660   -0.0810   18.6160 C.ar    1  UNL1        0.0743
     16 C           7.8820   -1.0140   18.2540 C.3     1  UNL1        0.0535
     17 N           6.1600    0.5470   17.6010 N.ar    1  UNL1       -0.2469
     18 C           5.1570    1.3940   17.8690 C.ar    1  UNL1        0.0982
     19 C           4.7120    1.6630   19.1410 C.ar    1  UNL1        0.0177
@<TRIPOS>BOND
     1     2     1    1
     2     3     2   ar
     3     4     3   ar
     4     5     4   ar
     5     6     2   ar
     6     7     5   ar
     7     7     6   ar
     8     8     7    1
     9     9     8    1
    10    10     9    2
    11    11     9   am
    12    12    11    1
    13    13    12   ar
    14    14    13    1
    15    15    12   ar
    16    16    15    1
    17    17    15   ar
    18    18    17   ar
    19    19    18   ar
    20    19    13   ar
