@<TRIPOS>MOLECULE
*****
 30 33 0 0 0
SMALL
GASTEIGER

@<TRIPOS>ATOM
      1 O           9.3720    1.1970   21.0810 O.2     1  UNL1       -0.2727
      2 C           8.8310    0.2160   21.5750 C.2     1  UNL1        0.2492
      3 C           9.3770   -0.4330   22.8710 C.3     1  UNL1        0.1046
      4 C          10.8780   -0.1450   22.8410 C.ar    1  UNL1        0.0209
      5 C          11.7550   -0.9380   22.1070 C.ar    1  UNL1        0.0106
      6 C          13.1000   -0.6260   22.0980 C.ar    1  UNL1        0.0576
      7 CL         14.1580   -1.5090   21.0300 Cl      1  UNL1       -0.0823
      8 C          13.6110    0.4280   22.8300 C.ar    1  UNL1        0.0145
      9 C          12.7500    1.2180   23.5670 C.ar    1  UNL1        0.0374
     10 C          11.3950    0.9290   23.5600 C.ar    1  UNL1        0.1350
     11 O          10.6000    1.7450   24.3210 O.3     1  UNL1       -0.4757
     12 C           9.5390    1.0270   24.9660 C.3     1  UNL1        0.2062
     13 C           8.6140    0.3390   23.9790 C.3     1  UNL1        0.0607
     14 C           9.1360   -1.9690   22.9210 C.3     1  UNL1        0.0982
     15 C           9.4690   -2.6650   24.2280 C.2     1  UNL1        0.2265
     16 O          10.1660   -2.1250   25.0770 O.2     1  UNL1       -0.2748
     17 N           9.0290   -3.9270   24.3900 N.am    1  UNL1       -0.2760
     18 C           7.7320   -4.4220   23.9240 C.3     1  UNL1        0.1149
     19 C           9.8450   -4.9160   25.1000 C.3     1  UNL1        0.1149
     20 N           7.7110   -0.3350   21.0640 N.am    1  UNL1       -0.1774
     21 C           6.9470    0.1240   19.9700 C.ar    1  UNL1        0.0925
     22 C           5.7990    0.9300   20.2420 C.ar    1  UNL1        0.0184
     23 C           5.3980    1.3160   21.5480 C.ar    1  UNL1        0.0014
     24 C           4.3000    2.1070   21.7400 C.ar    1  UNL1        0.0000
     25 C           3.5500    2.5500   20.6580 C.ar    1  UNL1        0.0001
     26 C           3.9010    2.2140   19.3820 C.ar    1  UNL1        0.0016
     27 C           5.0330    1.3980   19.1370 C.ar    1  UNL1        0.0204
     28 C           5.4600    1.0360   17.8380 C.ar    1  UNL1        0.0989
     29 N           6.5320    0.3010   17.5840 N.ar    1  UNL1       -0.2410
     30 C           7.2430   -0.1370   18.6320 C.ar    1  UNL1        0.1154
@<TRIPOS>BOND
     1     2     1    2
     2     3     2    1
     3     4     3    1
     4     5     4   ar
     5     6     5   ar
     6     7     6    1
     7     8     6   ar
     8     9     8   ar
     9    10     4   ar
    10    10     9   ar
    11    11    10    1
    12    12    11    1
    13    13    12    1
    14    13     3    1
    15     3    14    1
    16    15    14    1
    17    16    15    2
    18    17    15   am
    19    18    17    1
    20    19    17    1
    21    20     2   am
    22    21    20    1
    23    22    21   ar
    24    23    22   ar
    25    24    23   ar
    26    25    24   ar
    27    26    25   ar
    28    27    26   ar
    29    27    22   ar
    30    28    27   ar
    31    29    28   ar
    32    30    29   ar
    33    30    21   ar
