@<TRIPOS>MOLECULE
*****
 20 21 0 0 0
SMALL
GASTEIGER

@<TRIPOS>ATOM
      1 O           8.7430    0.4590   20.9400 O.2     1  UNL1       -0.2726
      2 C           8.1100   -0.5760   21.1420 C.2     1  UNL1        0.2500
      3 C           8.5680   -1.6100   22.1460 C.3     1  UNL1        0.1136
      4 C           9.8420   -1.1170   22.7810 C.ar    1  UNL1       -0.0092
      5 C          11.0690   -1.4160   22.2020 C.ar    1  UNL1        0.0078
      6 C          12.2230   -0.9200   22.7620 C.ar    1  UNL1        0.0604
      7 CL         13.7540   -1.3630   22.0650 Cl      1  UNL1       -0.0822
      8 C          12.2030   -0.1220   23.8890 C.ar    1  UNL1        0.0483
      9 C           9.7980   -0.3300   23.9260 C.ar    1  UNL1        0.0332
     10 C          10.9780    0.1470   24.4790 C.ar    1  UNL1        0.1393
     11 O          11.0810    0.7940   25.6840 O.3     1  UNL1       -0.4714
     12 C           9.9010    0.9480   26.4790 C.3     1  UNL1        0.2525
     13 N           6.9460   -0.8760   20.5350 N.am    1  UNL1       -0.1777
     14 C           6.3350   -0.0700   19.5590 C.ar    1  UNL1        0.0885
     15 C           5.2400    0.7400   19.9050 C.ar    1  UNL1       -0.0034
     16 C           4.7190    0.8220   21.3180 C.3     1  UNL1        0.0325
     17 C           4.6980    1.5370   18.9020 C.ar    1  UNL1        0.0177
     18 C           5.2610    1.5240   17.6430 C.ar    1  UNL1        0.0987
     19 N           6.3190    0.7700   17.3120 N.ar    1  UNL1       -0.2410
     20 C           6.8360   -0.0190   18.2590 C.ar    1  UNL1        0.1151
@<TRIPOS>BOND
     1     2     1    2
     2     3     2    1
     3     4     3    1
     4     5     4   ar
     5     6     5   ar
     6     7     6    1
     7     8     6   ar
     8     9     4   ar
     9    10     9   ar
    10    10     8   ar
    11    11    10    1
    12    12    11    1
    13    13     2   am
    14    14    13    1
    15    15    14   ar
    16    16    15    1
    17    17    15   ar
    18    18    17   ar
    19    19    18   ar
    20    20    19   ar
    21    20    14   ar
