@<TRIPOS>MOLECULE
*****
 16 17 0 0 0
SMALL
GASTEIGER

@<TRIPOS>ATOM
      1 O           8.5370    2.2820   22.7830 O.2     1  UNL1       -0.1686
      2 S           9.8420    1.7080   22.6070 S.O2    1  UNL1        0.0105
      3 O          10.3800    1.6460   21.2780 O.2     1  UNL1       -0.1686
      4 C          10.9740    2.5740   23.6280 C.3     1  UNL1        0.1816
      5 C           9.8190    0.0680   23.2690 C.ar    1  UNL1        0.1058
      6 C           9.5760   -0.1150   24.6190 C.ar    1  UNL1        0.0196
      7 C           9.4170   -1.3950   25.1140 C.ar    1  UNL1        0.0158
      8 C           9.5120   -2.5020   24.2770 C.ar    1  UNL1        0.0480
      9 C           9.8000   -2.2970   22.9260 C.ar    1  UNL1        0.0158
     10 C           9.9550   -1.0190   22.4210 C.ar    1  UNL1        0.0196
     11 N           9.2780   -3.7900   24.7740 N.pl3   1  UNL1       -0.3045
     12 C           8.9640   -3.9890   26.1960 C.3     1  UNL1        0.1096
     13 C           8.2550   -5.3130   26.4070 C.3     1  UNL1        0.1101
     14 N           9.0360   -6.4180   25.8100 N.3     1  UNL1       -0.2144
     15 C           9.2990   -6.1820   24.3790 C.3     1  UNL1        0.1101
     16 C          10.0660   -4.8930   24.2180 C.3     1  UNL1        0.1096
@<TRIPOS>BOND
     1     2     1    2
     2     3     2    2
     3     2     4    1
     4     5     2    1
     5     6     5   ar
     6     7     6   ar
     7     8     7   ar
     8     9     8   ar
     9    10     9   ar
    10    10     5   ar
    11    11     8    1
    12    12    11    1
    13    13    12    1
    14    14    13    1
    15    15    14    1
    16    16    15    1
    17    16    11    1
