@<TRIPOS>MOLECULE
*****
 24 27 0 0 0
SMALL
GASTEIGER

@<TRIPOS>ATOM
      1 O           5.6250   -2.8010   20.6870 O.2     1  UNL1       -0.2699
      2 C           6.3130   -1.7980   20.7930 C.2     1  UNL1        0.2506
      3 C           6.1130   -0.6550   19.8400 C.ar    1  UNL1        0.0727
      4 C           5.1530    0.3600   20.1090 C.ar    1  UNL1        0.0074
      5 C           4.5100    0.5370   21.3620 C.ar    1  UNL1        0.0002
      6 C           3.5900    1.5300   21.5430 C.ar    1  UNL1        0.0000
      7 C           3.2740    2.3960   20.5110 C.ar    1  UNL1        0.0000
      8 C           3.8740    2.2780   19.2910 C.ar    1  UNL1        0.0015
      9 C           4.8260    1.2560   19.0550 C.ar    1  UNL1        0.0193
     10 C           5.4860    1.0830   17.8130 C.ar    1  UNL1        0.0988
     11 N           6.3890    0.1410   17.5730 N.ar    1  UNL1       -0.2422
     12 C           6.6770   -0.7080   18.5670 C.ar    1  UNL1        0.1034
     13 N           7.2250   -1.6470   21.7800 N.am    1  UNL1       -0.2725
     14 C           8.0890   -0.4650   21.9170 C.3     1  UNL1        0.1151
     15 C           9.5480   -0.8890   21.9910 C.3     1  UNL1        0.1123
     16 N           9.7560   -1.8570   23.0770 N.pl3   1  UNL1       -0.3041
     17 C           8.8830   -3.0340   22.9560 C.3     1  UNL1        0.1123
     18 C           7.4100   -2.6310   22.8550 C.3     1  UNL1        0.1151
     19 C          11.0720   -2.0790   23.5560 C.ar    1  UNL1        0.0479
     20 C          12.1830   -1.5470   22.8820 C.ar    1  UNL1        0.0145
     21 C          13.4590   -1.7130   23.4050 C.ar    1  UNL1        0.0013
     22 C          13.6510   -2.4140   24.5780 C.ar    1  UNL1        0.0001
     23 C          12.5690   -2.9670   25.2340 C.ar    1  UNL1        0.0013
     24 C          11.2830   -2.8060   24.7330 C.ar    1  UNL1        0.0145
@<TRIPOS>BOND
     1     2     1    2
     2     3     2    1
     3     4     3   ar
     4     5     4   ar
     5     6     5   ar
     6     7     6   ar
     7     8     7   ar
     8     9     8   ar
     9     9     4   ar
    10    10     9   ar
    11    11    10   ar
    12    12    11   ar
    13    12     3   ar
    14    13     2   am
    15    14    13    1
    16    15    14    1
    17    16    15    1
    18    17    16    1
    19    18    13    1
    20    18    17    1
    21    19    16    1
    22    20    19   ar
    23    21    20   ar
    24    22    21   ar
    25    23    22   ar
    26    24    23   ar
    27    24    19   ar
