@<TRIPOS>MOLECULE
*****
 18 19 0 0 0
SMALL
GASTEIGER

@<TRIPOS>ATOM
      1 C           3.0550    2.2660   23.3760 C.2     1  UNL1        0.3392
      2 C           5.3300    1.5030   22.5690 C.3     1  UNL1        0.1215
      3 C           5.0000    0.2710   21.7300 C.3     1  UNL1        0.0499
      4 C           5.4280    0.3880   20.2680 C.ar    1  UNL1       -0.0173
      5 C           6.4960   -0.3840   19.8080 C.ar    1  UNL1        0.0165
      6 C           6.8790   -0.2690   18.4780 C.ar    1  UNL1        0.0986
      7 C           5.2120    1.2820   18.0740 C.ar    1  UNL1        0.0986
      8 C           4.7590    1.2450   19.3890 C.ar    1  UNL1        0.0165
      9 C           0.7800    3.2560   23.9770 C.3     1  UNL1        0.0969
     10 C           0.6750    4.6960   24.4870 C.3     1  UNL1        0.0217
     11 C          -0.6470    4.9500   25.1950 C.3     1  UNL1        0.0018
     12 C          -1.8160    4.6400   24.2700 C.3     1  UNL1        0.0001
     13 C          -1.7640    3.2080   23.7520 C.3     1  UNL1        0.0018
     14 C          -0.4130    2.8510   23.1240 C.3     1  UNL1        0.0217
     15 N           4.1990    2.4010   22.4890 N.am    1  UNL1       -0.1869
     16 N           6.2440    0.5430   17.6640 N.ar    1  UNL1       -0.2423
     17 N           1.9780    3.2140   23.1660 N.am    1  UNL1       -0.1890
     18 O           3.0150    1.4220   24.2210 O.2     1  UNL1       -0.2492
@<TRIPOS>BOND
     1     3     2    1
     2     4     3    1
     3     5     4   ar
     4     6     5   ar
     5     8     7   ar
     6     8     4   ar
     7    10     9    1
     8    11    10    1
     9    12    11    1
    10    13    12    1
    11    14    13    1
    12    14     9    1
    13    15     2    1
    14    15     1   am
    15    16     7   ar
    16    16     6   ar
    17     9    17    1
    18    17     1   am
    19    18     1    2
