@<TRIPOS>MOLECULE
*****
 27 30 0 0 0
SMALL
GASTEIGER

@<TRIPOS>ATOM
      1 CL         14.0440   -1.7170   21.1310 Cl      1  UNL1       -0.0823
      2 C          12.8690   -0.9620   22.1730 C.ar    1  UNL1        0.0574
      3 C          11.5390   -1.2980   22.0320 C.ar    1  UNL1        0.0074
      4 C          13.2750    0.0010   23.0650 C.ar    1  UNL1        0.0111
      5 C          12.3220    0.6460   23.8340 C.ar    1  UNL1       -0.0020
      6 C          10.9670    0.3370   23.7140 C.ar    1  UNL1       -0.0057
      7 C           9.9800    0.9840   24.6650 C.3     1  UNL1        0.1198
      8 N           8.5700    0.7440   24.3090 N.am    1  UNL1       -0.2746
      9 C           7.5410    1.5890   24.5850 C.2     1  UNL1        0.2264
     10 O           7.2410    2.4970   23.8200 O.2     1  UNL1       -0.2748
     11 C           6.7870    1.3740   25.8570 C.3     1  UNL1        0.0948
     12 C          10.5730   -0.6300   22.7820 C.ar    1  UNL1       -0.0137
     13 C           9.1010   -0.9190   22.5730 C.3     1  UNL1        0.1203
     14 C           8.3260   -0.6250   23.8540 C.3     1  UNL1        0.1072
     15 C           8.5400   -0.1230   21.3950 C.2     1  UNL1        0.2509
     16 O           9.0400    0.9370   21.0190 O.2     1  UNL1       -0.2726
     17 N           7.4470   -0.6730   20.8200 N.am    1  UNL1       -0.1773
     18 C           6.6870   -0.1580   19.7490 C.ar    1  UNL1        0.0925
     19 C           5.5700    0.6830   20.0490 C.ar    1  UNL1        0.0184
     20 C           5.0950    0.9240   21.3650 C.ar    1  UNL1        0.0014
     21 C           4.0330    1.7510   21.5860 C.ar    1  UNL1        0.0000
     22 C           3.3950    2.3860   20.5260 C.ar    1  UNL1        0.0001
     23 C           3.8210    2.1940   19.2430 C.ar    1  UNL1        0.0016
     24 C           4.9140    1.3360   18.9690 C.ar    1  UNL1        0.0204
     25 C           5.4070    1.1000   17.6620 C.ar    1  UNL1        0.0989
     26 N           6.4350    0.3110   17.3830 N.ar    1  UNL1       -0.2410
     27 C           7.0420   -0.3000   18.4080 C.ar    1  UNL1        0.1154
@<TRIPOS>BOND
     1     2     1    1
     2     3     2   ar
     3     4     2   ar
     4     5     4   ar
     5     6     5   ar
     6     7     6    1
     7     8     7    1
     8     9     8   am
     9    10     9    2
    10    11     9    1
    11    12     6   ar
    12    12     3   ar
    13    13    12    1
    14    14    13    1
    15    14     8    1
    16    13    15    1
    17    16    15    2
    18    17    15   am
    19    18    17    1
    20    19    18   ar
    21    20    19   ar
    22    21    20   ar
    23    22    21   ar
    24    23    22   ar
    25    24    23   ar
    26    24    19   ar
    27    25    24   ar
    28    26    25   ar
    29    27    26   ar
    30    27    18   ar
