
     RDKit          3D

 27 30  0  0  0  0  0  0  0  0999 V2000
   14.0440   -1.7170   21.1310 Cl  0  0  0  0  0  0  0  0  0  0  0  0
   12.8690   -0.9620   22.1730 C   0  0  0  0  0  0  0  0  0  0  0  0
   11.5390   -1.2980   22.0320 C   0  0  0  0  0  0  0  0  0  0  0  0
   13.2750    0.0010   23.0650 C   0  0  0  0  0  0  0  0  0  0  0  0
   12.3220    0.6460   23.8340 C   0  0  0  0  0  0  0  0  0  0  0  0
   10.9670    0.3370   23.7140 C   0  0  0  0  0  0  0  0  0  0  0  0
    9.9800    0.9840   24.6650 C   0  0  0  0  0  0  0  0  0  0  0  0
    8.5700    0.7440   24.3090 N   0  0  0  0  0  0  0  0  0  0  0  0
    7.5410    1.5890   24.5850 C   0  0  0  0  0  0  0  0  0  0  0  0
    7.2410    2.4970   23.8200 O   0  0  0  0  0  0  0  0  0  0  0  0
    6.7870    1.3740   25.8570 C   0  0  0  0  0  0  0  0  0  0  0  0
   10.5730   -0.6300   22.7820 C   0  0  0  0  0  0  0  0  0  0  0  0
    9.1010   -0.9190   22.5730 C   0  0  1  0  0  0  0  0  0  0  0  0
    8.3260   -0.6250   23.8540 C   0  0  0  0  0  0  0  0  0  0  0  0
    8.5400   -0.1230   21.3950 C   0  0  0  0  0  0  0  0  0  0  0  0
    9.0400    0.9370   21.0190 O   0  0  0  0  0  0  0  0  0  0  0  0
    7.4470   -0.6730   20.8200 N   0  0  0  0  0  0  0  0  0  0  0  0
    6.6870   -0.1580   19.7490 C   0  0  0  0  0  0  0  0  0  0  0  0
    5.5700    0.6830   20.0490 C   0  0  0  0  0  0  0  0  0  0  0  0
    5.0950    0.9240   21.3650 C   0  0  0  0  0  0  0  0  0  0  0  0
    4.0330    1.7510   21.5860 C   0  0  0  0  0  0  0  0  0  0  0  0
    3.3950    2.3860   20.5260 C   0  0  0  0  0  0  0  0  0  0  0  0
    3.8210    2.1940   19.2430 C   0  0  0  0  0  0  0  0  0  0  0  0
    4.9140    1.3360   18.9690 C   0  0  0  0  0  0  0  0  0  0  0  0
    5.4070    1.1000   17.6620 C   0  0  0  0  0  0  0  0  0  0  0  0
    6.4350    0.3110   17.3830 N   0  0  0  0  0  0  0  0  0  0  0  0
    7.0420   -0.3000   18.4080 C   0  0  0  0  0  0  0  0  0  0  0  0
  2  1  1  0
  3  2  2  0
  4  2  1  0
  5  4  2  0
  6  5  1  0
  7  6  1  0
  8  7  1  0
  9  8  1  0
 10  9  2  0
 11  9  1  0
 12  6  2  0
 12  3  1  0
 13 12  1  0
 14 13  1  0
 14  8  1  0
 13 15  1  6
 16 15  2  0
 17 15  1  0
 18 17  1  0
 19 18  1  0
 20 19  2  0
 21 20  1  0
 22 21  2  0
 23 22  1  0
 24 23  2  0
 24 19  1  0
 25 24  1  0
 26 25  2  0
 27 26  1  0
 27 18  2  0
M  END
