@<TRIPOS>MOLECULE
*****
 21 24 0 0 0
SMALL
GASTEIGER

@<TRIPOS>ATOM
      1 O           9.0030    1.3280   21.1560 O.2     1  UNL1       -0.2726
      2 C           8.5420    0.2440   21.5000 C.2     1  UNL1        0.2519
      3 C           8.8980   -0.4090   22.8400 C.3     1  UNL1        0.1074
      4 C          10.4110   -0.4660   22.9230 C.ar    1  UNL1        0.0203
      5 C          11.1680   -1.1360   21.9660 C.ar    1  UNL1       -0.0008
      6 C          12.5510   -1.0680   21.9810 C.ar    1  UNL1       -0.0001
      7 C          13.1990   -0.3210   22.9370 C.ar    1  UNL1        0.0031
      8 C          12.4730    0.3350   23.9230 C.ar    1  UNL1        0.0366
      9 C          11.0880    0.2360   23.9250 C.ar    1  UNL1        0.1350
     10 O          10.4470    0.8220   24.9910 O.3     1  UNL1       -0.4757
     11 C           9.1110    0.3360   25.2460 C.3     1  UNL1        0.2062
     12 C           8.2440    0.3780   24.0080 C.3     1  UNL1        0.0610
     13 N           7.6320   -0.4360   20.7440 N.am    1  UNL1       -0.1430
     14 C           7.1480   -0.0120   19.5170 C.ar    1  UNL1        0.2445
     15 N           5.8870    0.5080   19.3570 N.ar    1  UNL1       -0.2815
     16 C           5.8200    0.8600   18.0420 C.ar    1  UNL1        0.2036
     17 N           6.9370    0.6060   17.4330 N.ar    1  UNL1       -0.1242
     18 N           7.7940    0.0380   18.3670 N.ar    1  UNL1       -0.1107
     19 C           4.8710    0.7540   20.3940 C.3     1  UNL1        0.0898
     20 C           5.0650    1.9070   21.3130 C.3     1  UNL1        0.0246
     21 C           4.0160    1.9620   20.2510 C.3     1  UNL1        0.0246
@<TRIPOS>BOND
     1     2     1    2
     2     3     2    1
     3     4     3    1
     4     5     4   ar
     5     6     5   ar
     6     7     6   ar
     7     8     7   ar
     8     9     4   ar
     9     9     8   ar
    10    10     9    1
    11    11    10    1
    12    12    11    1
    13    12     3    1
    14    13     2   am
    15    14    13    1
    16    15    14   ar
    17    16    15   ar
    18    17    16   ar
    19    18    17   ar
    20    18    14   ar
    21    19    15    1
    22    20    19    1
    23    21    20    1
    24    21    19    1
