@<TRIPOS>MOLECULE
*****
 30 33 0 0 0
SMALL
GASTEIGER

@<TRIPOS>ATOM
      1 O          10.9240    3.0070   24.5050 O.2     1  UNL1       -0.2699
      2 C          10.4700    1.9600   24.0730 C.2     1  UNL1        0.2491
      3 N           9.1260    1.6510   24.1700 N.am    1  UNL1       -0.2669
      4 C           8.2600    2.4750   24.9970 C.3     1  UNL1        0.1811
      5 C           7.6590    3.6910   24.3100 C.2     1  UNL1        0.2617
      6 O           7.3730    4.6980   24.9570 O.2     1  UNL1       -0.2715
      7 N           7.4460    3.5960   23.0010 N.am    1  UNL1       -0.2021
      8 C           6.8390    4.6650   22.2310 C.3     1  UNL1        0.1386
      9 C          11.3210    0.9870   23.3610 C.ar    1  UNL1        0.0502
     10 C          12.7010    1.2000   23.2930 C.ar    1  UNL1        0.0051
     11 C          13.5250    0.2740   22.6800 C.ar    1  UNL1        0.0115
     12 C          12.9640   -0.8550   22.1220 C.ar    1  UNL1        0.0574
     13 CL         13.9860   -1.9880   21.2840 Cl      1  UNL1       -0.0823
     14 C          11.6020   -1.0810   22.1540 C.ar    1  UNL1        0.0078
     15 C          10.7610   -0.1470   22.7600 C.ar    1  UNL1       -0.0069
     16 C           9.2610   -0.3380   22.7270 C.3     1  UNL1        0.1207
     17 C           8.6340    0.2850   23.9720 C.3     1  UNL1        0.1077
     18 C           8.6980    0.3460   21.4790 C.2     1  UNL1        0.2509
     19 O           9.0940    1.4480   21.1030 O.2     1  UNL1       -0.2726
     20 N           7.6740   -0.3110   20.8910 N.am    1  UNL1       -0.1773
     21 C           6.8270    0.1550   19.8580 C.ar    1  UNL1        0.0925
     22 C           5.6560    0.8940   20.2280 C.ar    1  UNL1        0.0184
     23 C           5.2980    1.1840   21.5730 C.ar    1  UNL1        0.0014
     24 C           4.2320    1.9860   21.8590 C.ar    1  UNL1        0.0000
     25 C           3.4580    2.5300   20.8370 C.ar    1  UNL1        0.0001
     26 C           3.7410    2.2560   19.5270 C.ar    1  UNL1        0.0016
     27 C           4.8480    1.4370   19.1860 C.ar    1  UNL1        0.0204
     28 C           5.2460    1.1920   17.8480 C.ar    1  UNL1        0.0989
     29 N           6.3310    0.5100   17.5070 N.ar    1  UNL1       -0.2410
     30 C           7.0890    0.0110   18.4940 C.ar    1  UNL1        0.1154
@<TRIPOS>BOND
     1     2     1    2
     2     3     2   am
     3     4     3    1
     4     5     4    1
     5     6     5    2
     6     7     5   am
     7     8     7    1
     8     9     2    1
     9    10     9   ar
    10    11    10   ar
    11    12    11   ar
    12    13    12    1
    13    14    12   ar
    14    15    14   ar
    15    15     9   ar
    16    16    15    1
    17    17    16    1
    18    17     3    1
    19    16    18    1
    20    19    18    2
    21    20    18   am
    22    21    20    1
    23    22    21   ar
    24    23    22   ar
    25    24    23   ar
    26    25    24   ar
    27    26    25   ar
    28    27    26   ar
    29    27    22   ar
    30    28    27   ar
    31    29    28   ar
    32    30    29   ar
    33    30    21   ar
