@<TRIPOS>MOLECULE
*****
 17 19 0 0 0
SMALL
GASTEIGER

@<TRIPOS>ATOM
      1 O           9.6900    1.0270   21.1360 O.2     1  UNL1       -0.2730
      2 C           9.2250    0.0440   21.7110 C.2     1  UNL1        0.2451
      3 C           9.9220   -0.6060   22.8730 C.3     1  UNL1        0.0786
      4 C          10.9850   -1.6180   22.4330 C.3     1  UNL1        0.0091
      5 C          12.3190   -0.9060   22.7380 C.3     1  UNL1        0.0005
      6 C          13.4700   -1.0410   21.7960 C.3     1  UNL1        0.0000
      7 C          13.5160   -1.6990   23.1500 C.3     1  UNL1        0.0000
      8 C          12.0600    0.4660   23.4050 C.3     1  UNL1        0.0005
      9 C          10.5810    0.4130   23.8240 C.3     1  UNL1        0.0091
     10 N           8.0640   -0.5440   21.3610 N.am    1  UNL1       -0.1780
     11 C           7.2310   -0.0830   20.3200 C.ar    1  UNL1        0.0885
     12 C           5.9720    0.4610   20.6320 C.ar    1  UNL1       -0.0034
     13 C           5.4850    0.5890   22.0550 C.3     1  UNL1        0.0325
     14 C           7.6420   -0.1090   18.9860 C.ar    1  UNL1        0.1151
     15 N           6.8990    0.3660   17.9790 N.ar    1  UNL1       -0.2410
     16 C           5.7010    0.8780   18.2880 C.ar    1  UNL1        0.0987
     17 C           5.2050    0.9400   19.5760 C.ar    1  UNL1        0.0177
@<TRIPOS>BOND
     1     2     1    2
     2     3     2    1
     3     4     3    1
     4     5     4    1
     5     6     5    1
     6     7     6    1
     7     7     5    1
     8     8     5    1
     9     9     3    1
    10     9     8    1
    11    10     2   am
    12    11    10    1
    13    12    11   ar
    14    13    12    1
    15    14    11   ar
    16    15    14   ar
    17    16    15   ar
    18    17    16   ar
    19    17    12   ar
