@<TRIPOS>MOLECULE
*****
 30 33 0 0 0
SMALL
GASTEIGER

@<TRIPOS>ATOM
      1 CL         13.9130   -1.6080   21.3130 Cl      1  UNL1       -0.0823
      2 C          12.7790   -0.7780   22.3390 C.ar    1  UNL1        0.0574
      3 C          11.4340   -1.0800   22.2390 C.ar    1  UNL1        0.0074
      4 C          13.2430    0.1640   23.2260 C.ar    1  UNL1        0.0111
      5 C          12.3450    0.7940   24.0650 C.ar    1  UNL1       -0.0023
      6 C          10.9820    0.5050   24.0080 C.ar    1  UNL1       -0.0078
      7 C          10.0660    1.1360   25.0290 C.3     1  UNL1        0.1229
      8 N           8.6710    1.0660   24.5810 N.3     1  UNL1       -0.1401
      9 S           7.5670    2.0420   25.2010 S.O2    1  UNL1        0.1024
     10 O           6.3150    1.7480   24.5950 O.2     1  UNL1       -0.1408
     11 O           7.7180    2.0400   26.6150 O.2     1  UNL1       -0.1408
     12 N           8.1000    3.4380   24.6320 N.3     1  UNL1       -0.1424
     13 C           7.5940    3.9010   23.3350 C.3     1  UNL1        0.1161
     14 C           8.4090    4.5010   25.5960 C.3     1  UNL1        0.1161
     15 C          10.5160   -0.4240   23.0600 C.ar    1  UNL1       -0.0142
     16 C           9.0280   -0.6820   22.8930 C.3     1  UNL1        0.1182
     17 C           8.2530   -0.2800   24.1500 C.3     1  UNL1        0.1108
     18 C           8.4980    0.0820   21.6790 C.2     1  UNL1        0.2507
     19 O           9.0210    1.1260   21.2820 O.2     1  UNL1       -0.2726
     20 N           7.4000   -0.4710   21.1020 N.am    1  UNL1       -0.1773
     21 C           6.6740    0.0070   19.9860 C.ar    1  UNL1        0.0925
     22 C           5.5220    0.8270   20.2110 C.ar    1  UNL1        0.0184
     23 C           4.9900    1.1040   21.4970 C.ar    1  UNL1        0.0014
     24 C           3.8980    1.9100   21.6460 C.ar    1  UNL1        0.0000
     25 C           3.2880    2.4920   20.5390 C.ar    1  UNL1        0.0001
     26 C           3.7590    2.2500   19.2800 C.ar    1  UNL1        0.0016
     27 C           4.8790    1.4060   19.0780 C.ar    1  UNL1        0.0204
     28 C           5.3950    1.0980   17.7960 C.ar    1  UNL1        0.0989
     29 N           6.4450    0.3150   17.5860 N.ar    1  UNL1       -0.2410
     30 C           7.0590   -0.2010   18.6600 C.ar    1  UNL1        0.1154
@<TRIPOS>BOND
     1     2     1    1
     2     3     2   ar
     3     4     2   ar
     4     5     4   ar
     5     6     5   ar
     6     7     6    1
     7     8     7    1
     8     9     8    1
     9    10     9    2
    10    11     9    2
    11     9    12    1
    12    13    12    1
    13    14    12    1
    14    15     6   ar
    15    15     3   ar
    16    16    15    1
    17    17    16    1
    18    17     8    1
    19    16    18    1
    20    19    18    2
    21    20    18   am
    22    21    20    1
    23    22    21   ar
    24    23    22   ar
    25    24    23   ar
    26    25    24   ar
    27    26    25   ar
    28    27    26   ar
    29    27    22   ar
    30    28    27   ar
    31    29    28   ar
    32    30    29   ar
    33    30    21   ar
