@<TRIPOS>MOLECULE
*****
 28 31 0 0 0
SMALL
GASTEIGER

@<TRIPOS>ATOM
      1 CL         14.1150   -1.6550   20.9590 Cl      1  UNL1       -0.0823
      2 C          13.1910   -0.6960   22.0770 C.ar    1  UNL1        0.0576
      3 C          13.8440    0.2200   22.8750 C.ar    1  UNL1        0.0145
      4 C          13.1050    1.0470   23.7000 C.ar    1  UNL1        0.0374
      5 C          11.7220    0.9540   23.6940 C.ar    1  UNL1        0.1350
      6 O          11.0540    1.8170   24.5230 O.3     1  UNL1       -0.4757
      7 C           9.8450    1.2610   25.0670 C.3     1  UNL1        0.2062
      8 C           8.8690    0.8970   23.9760 C.3     1  UNL1        0.0609
      9 C          11.8140   -0.8230   22.0920 C.ar    1  UNL1        0.0106
     10 C          11.0530    0.0290   22.8910 C.ar    1  UNL1        0.0211
     11 C           9.5350   -0.0010   22.9100 C.3     1  UNL1        0.1063
     12 C           8.9470    0.3190   21.5370 C.2     1  UNL1        0.2390
     13 O           9.2780    1.3120   20.9120 O.2     1  UNL1       -0.2738
     14 N           7.9560   -0.5450   21.0100 N.am    1  UNL1       -0.2064
     15 C           7.7750   -1.8790   21.4230 C.2     1  UNL1        0.2352
     16 O           8.6360   -2.4450   22.0790 O.2     1  UNL1       -0.2741
     17 C           6.5330   -2.6170   20.9620 C.3     1  UNL1        0.0860
     18 C           6.8620   -3.9110   20.2250 C.3     1  UNL1        0.0101
     19 C           7.1210   -0.0420   19.9430 C.ar    1  UNL1        0.0797
     20 C           7.4630   -0.2230   18.6090 C.ar    1  UNL1        0.1141
     21 N           6.7950    0.3190   17.5800 N.ar    1  UNL1       -0.2410
     22 C           5.7630    1.1040   17.8610 C.ar    1  UNL1        0.0989
     23 C           5.3120    1.3930   19.1700 C.ar    1  UNL1        0.0204
     24 C           6.0020    0.7860   20.2590 C.ar    1  UNL1        0.0171
     25 C           4.1880    2.2110   19.4360 C.ar    1  UNL1        0.0016
     26 C           3.7570    2.4040   20.7160 C.ar    1  UNL1        0.0001
     27 C           4.4110    1.7980   21.7810 C.ar    1  UNL1        0.0000
     28 C           5.5060    1.0080   21.5690 C.ar    1  UNL1        0.0013
@<TRIPOS>BOND
     1     2     1    1
     2     3     2   ar
     3     4     3   ar
     4     5     4   ar
     5     6     5    1
     6     7     6    1
     7     8     7    1
     8     9     2   ar
     9    10     9   ar
    10    10     5   ar
    11    11     8    1
    12    11    10    1
    13    11    12    1
    14    13    12    2
    15    14    12   am
    16    15    14   am
    17    16    15    2
    18    17    15    1
    19    18    17    1
    20    19    14    1
    21    20    19   ar
    22    21    20   ar
    23    22    21   ar
    24    23    22   ar
    25    24    23   ar
    26    24    19   ar
    27    25    23   ar
    28    26    25   ar
    29    27    26   ar
    30    28    27   ar
    31    28    24   ar
