@<TRIPOS>MOLECULE
*****
 22 24 0 0 0
SMALL
GASTEIGER

@<TRIPOS>ATOM
      1 CL         14.0630   -1.7280   21.5800 Cl      1  UNL1       -0.0814
      2 C          12.7210   -0.9740   22.3650 C.ar    1  UNL1        0.0679
      3 C          12.9150    0.0410   23.2840 C.ar    1  UNL1        0.0682
      4 CL         14.5060    0.5490   23.7340 Cl      1  UNL1       -0.0814
      5 C          11.4400   -1.3640   22.0190 C.ar    1  UNL1        0.0085
      6 C          10.3350   -0.7250   22.5690 C.ar    1  UNL1       -0.0121
      7 C          10.5480    0.2880   23.4910 C.ar    1  UNL1       -0.0029
      8 C          11.8260    0.6720   23.8460 C.ar    1  UNL1        0.0119
      9 C           8.9370   -1.1100   22.1410 C.3     1  UNL1        0.1135
     10 C           8.2900   -0.1610   21.1480 C.2     1  UNL1        0.2500
     11 O           8.7160    0.9690   20.9470 O.2     1  UNL1       -0.2726
     12 N           7.2100   -0.6660   20.5270 N.am    1  UNL1       -0.1773
     13 C           6.3800   -0.0410   19.5820 C.ar    1  UNL1        0.0926
     14 C           5.2610    0.7200   20.0310 C.ar    1  UNL1        0.0214
     15 C           4.8390    0.7980   21.3750 C.ar    1  UNL1        0.0221
     16 C           3.7390    1.5370   21.6870 C.ar    1  UNL1        0.0989
     17 N           3.0130    2.2220   20.7930 N.ar    1  UNL1       -0.2423
     18 C           3.3960    2.1710   19.5270 C.ar    1  UNL1        0.1004
     19 C           4.5080    1.4330   19.0660 C.ar    1  UNL1        0.0396
     20 C           4.9110    1.3320   17.7200 C.ar    1  UNL1        0.1005
     21 N           5.9300    0.6130   17.3020 N.ar    1  UNL1       -0.2409
     22 C           6.6340   -0.0530   18.2200 C.ar    1  UNL1        0.1154
@<TRIPOS>BOND
     1     2     1    1
     2     3     2   ar
     3     4     3    1
     4     5     2   ar
     5     6     5   ar
     6     7     6   ar
     7     8     7   ar
     8     8     3   ar
     9     9     6    1
    10    10     9    1
    11    11    10    2
    12    12    10   am
    13    13    12    1
    14    14    13   ar
    15    15    14   ar
    16    16    15   ar
    17    17    16   ar
    18    18    17   ar
    19    19    18   ar
    20    19    14   ar
    21    20    19   ar
    22    21    20   ar
    23    22    21   ar
    24    22    13   ar
