@<TRIPOS>MOLECULE
*****
 18 19 0 0 0
SMALL
GASTEIGER

@<TRIPOS>ATOM
      1 C          13.2790   -1.1100   22.5510 C.3     1  UNL1        0.0897
      2 C           7.3460    2.6880   29.3200 C.ar    1  UNL1       -0.0011
      3 C           6.1340    2.5890   29.9750 C.ar    1  UNL1       -0.0217
      4 C           5.6280    3.7020   30.8450 C.3     1  UNL1        0.0310
      5 C           5.4040    1.4270   29.8130 C.ar    1  UNL1       -0.0011
      6 C           5.8590    0.3840   29.0200 C.ar    1  UNL1        0.0366
      7 C          11.7750   -0.1770   24.1860 C.3     1  UNL1        0.0939
      8 C          11.0660   -0.4520   25.4900 C.3     1  UNL1        0.1109
      9 C          10.7250   -2.7630   24.7710 C.3     1  UNL1        0.1109
     10 C          11.4990   -2.4350   23.5120 C.3     1  UNL1        0.0939
     11 C           8.8410   -1.4930   25.7840 C.2     1  UNL1        0.2703
     12 C           8.4290   -0.2470   26.5570 C.3     1  UNL1        0.2896
     13 C           7.0740    0.5030   28.3640 C.ar    1  UNL1        0.1393
     14 C           7.8220    1.6660   28.5150 C.ar    1  UNL1        0.0366
     15 N          12.4820   -1.3770   23.7480 N.3     1  UNL1       -0.2686
     16 N          10.1200   -1.5640   25.3570 N.am    1  UNL1       -0.2737
     17 O           8.0090   -2.3770   25.5740 O.2     1  UNL1       -0.2708
     18 O           7.5030   -0.5450   27.5910 O.3     1  UNL1       -0.4656
@<TRIPOS>BOND
     1     3     2   ar
     2     4     3    1
     3     5     3   ar
     4     6     5   ar
     5     8     7    1
     6    10     9    1
     7    12    11    1
     8    13     6   ar
     9    14    13   ar
    10    14     2   ar
    11    15    10    1
    12    15     7    1
    13    15     1    1
    14    16    11   am
    15    16     9    1
    16    16     8    1
    17    17    11    2
    18    18    12    1
    19    18    13    1
