@<TRIPOS>MOLECULE
*****
 20 20 0 0 0
SMALL
GASTEIGER

@<TRIPOS>ATOM
      1 C           7.8160    4.8510   22.6070 C.3     1  UNL1        0.0964
      2 C           7.0410   -0.3190   20.1400 C.ar    1  UNL1       -0.0009
      3 C           9.1190    0.3280   22.3550 C.2     1  UNL1        0.2625
      4 C          10.0490   -1.8570   21.8960 C.3     1  UNL1        0.1911
      5 C          11.4300   -1.6550   22.3400 C.1     1  UNL1       -0.0555
      6 C          12.5700   -1.7000   22.7420 C.1     1  UNL1       -0.0212
      7 C           7.3670    3.4730   22.9690 C.2     1  UNL1        0.2423
      8 C           7.9300    1.0960   22.9160 C.3     1  UNL1        0.1770
      9 C           6.5970    0.4580   22.4930 C.3     1  UNL1        0.0574
     10 C           6.3590    0.5210   21.0050 C.ar    1  UNL1       -0.0198
     11 C           5.4780    1.4430   20.4570 C.ar    1  UNL1       -0.0009
     12 C           5.2780    1.5240   19.0890 C.ar    1  UNL1        0.0417
     13 C           5.9710    0.6700   18.2480 C.ar    1  UNL1        0.1957
     14 C           6.8570   -0.2490   18.7720 C.ar    1  UNL1        0.0417
     15 N           8.0630    2.4670   22.4450 N.am    1  UNL1       -0.1974
     16 N           9.1560   -0.9750   22.6170 N.am    1  UNL1       -0.1895
     17 O           6.3900    3.2650   23.6800 O.2     1  UNL1       -0.2733
     18 O           5.8190    0.7380   16.9050 O.3     1  UNL1       -0.2866
     19 O           9.9670    0.8990   21.6760 O.2     1  UNL1       -0.2714
     20 BR         14.2640   -2.0190   23.6280 Br      1  UNL1        0.0106
@<TRIPOS>BOND
     1     5     4    1
     2     6     5    3
     3     7     1    1
     4     8     3    1
     5     8     9    1
     6    10     2   ar
     7    10     9    1
     8    11    10   ar
     9    12    11   ar
    10    13    12   ar
    11    14    13   ar
    12    14     2   ar
    13    15     8    1
    14    15     7   am
    15    16     4    1
    16    16     3   am
    17    17     7    2
    18    18    13    1
    19    19     3    2
    20    20     6    1
