@<TRIPOS>MOLECULE
*****
 30 33 0 0 0
SMALL
GASTEIGER

@<TRIPOS>ATOM
      1 O           9.2760    1.1800   21.1310 O.2     1  UNL1       -0.2726
      2 C           8.7860    0.1840   21.6560 C.2     1  UNL1        0.2504
      3 C           9.4500   -0.4630   22.8930 C.3     1  UNL1        0.1161
      4 C          10.9500   -0.1750   22.9250 C.ar    1  UNL1        0.0221
      5 C          11.8190   -0.9060   22.1150 C.ar    1  UNL1        0.0106
      6 C          13.1680   -0.6030   22.1160 C.ar    1  UNL1        0.0576
      7 CL         14.2170   -1.4270   20.9930 Cl      1  UNL1       -0.0823
      8 C          13.6950    0.3810   22.9260 C.ar    1  UNL1        0.0145
      9 C          12.8530    1.0920   23.7630 C.ar    1  UNL1        0.0374
     10 C          11.4950    0.8190   23.7550 C.ar    1  UNL1        0.1350
     11 O          10.7330    1.6390   24.5550 O.3     1  UNL1       -0.4757
     12 C           9.2930    1.5520   24.4200 C.3     1  UNL1        0.2063
     13 C           8.7940    0.1510   24.1510 C.3     1  UNL1        0.0619
     14 C           9.2160   -1.9840   23.0160 C.3     1  UNL1        0.1315
     15 N           9.9220   -2.5690   24.1450 N.am    1  UNL1       -0.1679
     16 C           9.6380   -3.7780   24.6460 C.2     1  UNL1        0.4213
     17 O           8.7820   -4.5180   24.2110 O.2     1  UNL1       -0.2246
     18 O          10.4410   -4.0660   25.6850 O.3     1  UNL1       -0.4294
     19 C          10.3700   -5.4240   26.1810 C.3     1  UNL1        0.2574
     20 N           7.6350   -0.3700   21.2030 N.am    1  UNL1       -0.1773
     21 C           6.8850    0.1080   20.1040 C.ar    1  UNL1        0.0925
     22 C           5.7470    0.9420   20.3570 C.ar    1  UNL1        0.0184
     23 C           5.2590    1.2390   21.6570 C.ar    1  UNL1        0.0014
     24 C           4.1620    2.0360   21.8310 C.ar    1  UNL1        0.0000
     25 C           3.5010    2.5800   20.7360 C.ar    1  UNL1        0.0001
     26 C           3.9350    2.3280   19.4660 C.ar    1  UNL1        0.0016
     27 C           5.0650    1.5020   19.2400 C.ar    1  UNL1        0.0204
     28 C           5.5520    1.1920   17.9470 C.ar    1  UNL1        0.0989
     29 N           6.6070    0.4240   17.7110 N.ar    1  UNL1       -0.2410
     30 C           7.2420   -0.1000   18.7700 C.ar    1  UNL1        0.1154
@<TRIPOS>BOND
     1     2     1    2
     2     3     2    1
     3     4     3    1
     4     5     4   ar
     5     6     5   ar
     6     7     6    1
     7     8     6   ar
     8     9     8   ar
     9    10     9   ar
    10    10     4   ar
    11    11    10    1
    12    12    11    1
    13    13    12    1
    14    13     3    1
    15     3    14    1
    16    15    14    1
    17    16    15   am
    18    17    16    2
    19    18    16    1
    20    19    18    1
    21    20     2   am
    22    21    20    1
    23    22    21   ar
    24    23    22   ar
    25    24    23   ar
    26    25    24   ar
    27    26    25   ar
    28    27    26   ar
    29    27    22   ar
    30    28    27   ar
    31    29    28   ar
    32    30    29   ar
    33    30    21   ar
