
     RDKit          3D

 30 33  0  0  0  0  0  0  0  0999 V2000
    9.2760    1.1800   21.1310 O   0  0  0  0  0  0  0  0  0  0  0  0
    8.7860    0.1840   21.6560 C   0  0  0  0  0  0  0  0  0  0  0  0
    9.4500   -0.4630   22.8930 C   0  0  1  0  0  0  0  0  0  0  0  0
   10.9500   -0.1750   22.9250 C   0  0  0  0  0  0  0  0  0  0  0  0
   11.8190   -0.9060   22.1150 C   0  0  0  0  0  0  0  0  0  0  0  0
   13.1680   -0.6030   22.1160 C   0  0  0  0  0  0  0  0  0  0  0  0
   14.2170   -1.4270   20.9930 Cl  0  0  0  0  0  0  0  0  0  0  0  0
   13.6950    0.3810   22.9260 C   0  0  0  0  0  0  0  0  0  0  0  0
   12.8530    1.0920   23.7630 C   0  0  0  0  0  0  0  0  0  0  0  0
   11.4950    0.8190   23.7550 C   0  0  0  0  0  0  0  0  0  0  0  0
   10.7330    1.6390   24.5550 O   0  0  0  0  0  0  0  0  0  0  0  0
    9.2930    1.5520   24.4200 C   0  0  0  0  0  0  0  0  0  0  0  0
    8.7940    0.1510   24.1510 C   0  0  0  0  0  0  0  0  0  0  0  0
    9.2160   -1.9840   23.0160 C   0  0  0  0  0  0  0  0  0  0  0  0
    9.9220   -2.5690   24.1450 N   0  0  0  0  0  0  0  0  0  0  0  0
    9.6380   -3.7780   24.6460 C   0  0  0  0  0  0  0  0  0  0  0  0
    8.7820   -4.5180   24.2110 O   0  0  0  0  0  0  0  0  0  0  0  0
   10.4410   -4.0660   25.6850 O   0  0  0  0  0  0  0  0  0  0  0  0
   10.3700   -5.4240   26.1810 C   0  0  0  0  0  0  0  0  0  0  0  0
    7.6350   -0.3700   21.2030 N   0  0  0  0  0  0  0  0  0  0  0  0
    6.8850    0.1080   20.1040 C   0  0  0  0  0  0  0  0  0  0  0  0
    5.7470    0.9420   20.3570 C   0  0  0  0  0  0  0  0  0  0  0  0
    5.2590    1.2390   21.6570 C   0  0  0  0  0  0  0  0  0  0  0  0
    4.1620    2.0360   21.8310 C   0  0  0  0  0  0  0  0  0  0  0  0
    3.5010    2.5800   20.7360 C   0  0  0  0  0  0  0  0  0  0  0  0
    3.9350    2.3280   19.4660 C   0  0  0  0  0  0  0  0  0  0  0  0
    5.0650    1.5020   19.2400 C   0  0  0  0  0  0  0  0  0  0  0  0
    5.5520    1.1920   17.9470 C   0  0  0  0  0  0  0  0  0  0  0  0
    6.6070    0.4240   17.7110 N   0  0  0  0  0  0  0  0  0  0  0  0
    7.2420   -0.1000   18.7700 C   0  0  0  0  0  0  0  0  0  0  0  0
  2  1  2  0
  3  2  1  0
  4  3  1  0
  5  4  2  0
  6  5  1  0
  7  6  1  0
  8  6  2  0
  9  8  1  0
 10  9  2  0
 10  4  1  0
 11 10  1  0
 12 11  1  0
 13 12  1  0
 13  3  1  0
  3 14  1  6
 15 14  1  0
 16 15  1  0
 17 16  2  0
 18 16  1  0
 19 18  1  0
 20  2  1  0
 21 20  1  0
 22 21  1  0
 23 22  2  0
 24 23  1  0
 25 24  2  0
 26 25  1  0
 27 26  2  0
 27 22  1  0
 28 27  1  0
 29 28  2  0
 30 29  1  0
 30 21  2  0
M  END
> <BADATOMS>
14;15;16;17;18;13
> <BADCOMMENTS>
Weak Density;Weak Density;Weak Density;Weak Density;Weak Density;Weak Density