@<TRIPOS>MOLECULE
*****
 33 35 0 0 0
SMALL
GASTEIGER

@<TRIPOS>ATOM
      1 O           9.0250    1.2390   21.0330 O.2     1  UNL1       -0.2708
      2 C           8.0190    1.0820   21.7180 C.2     1  UNL1        0.2683
      3 C           7.0230   -0.0440   21.3990 C.3     1  UNL1        0.1821
      4 C           6.3420    0.1890   20.0620 C.ar    1  UNL1        0.0241
      5 C           5.1380    0.8760   19.9890 C.ar    1  UNL1        0.0010
      6 C           4.6650    1.3190   18.7680 C.ar    1  UNL1        0.0204
      7 C           5.4090    1.0400   17.6390 C.ar    1  UNL1        0.0989
      8 N           6.5610    0.3600   17.6670 N.ar    1  UNL1       -0.2426
      9 C           6.9960   -0.0570   18.8620 C.ar    1  UNL1        0.0967
     10 N           7.4200   -1.4470   21.7080 N.am    1  UNL1       -0.2465
     11 C           8.6700   -1.6090   22.4030 C.ar    1  UNL1        0.0737
     12 C           8.6990   -1.7750   23.7840 C.ar    1  UNL1        0.0177
     13 C           9.9150   -1.9470   24.4240 C.ar    1  UNL1        0.0160
     14 C          11.0820   -1.9310   23.6660 C.ar    1  UNL1        0.0587
     15 C          12.4800   -2.0520   24.2930 C.3     1  UNL1        0.0403
     16 C          12.9700   -0.7090   24.8230 C.3     1  UNL1        0.0063
     17 C          12.5380   -3.1190   25.3880 C.3     1  UNL1        0.0063
     18 N          11.0690   -1.7710   22.3330 N.ar    1  UNL1       -0.2469
     19 C           9.8830   -1.6250   21.7210 C.ar    1  UNL1        0.1133
     20 C           6.6440   -2.5190   21.3670 C.2     1  UNL1        0.2299
     21 O           5.4990   -2.3780   20.9800 O.2     1  UNL1       -0.2745
     22 C           7.2610   -3.8990   21.4190 C.3     1  UNL1        0.0857
     23 C           6.9550   -4.7100   20.1640 C.3     1  UNL1        0.0101
     24 N           7.6200    1.9440   22.6770 N.am    1  UNL1       -0.1782
     25 C           8.2540    3.2000   22.8980 C.ar    1  UNL1        0.0654
     26 C           7.6510    4.3600   22.3950 C.ar    1  UNL1       -0.0068
     27 C           6.2930    4.3320   21.7410 C.3     1  UNL1        0.0324
     28 C           8.3170    5.5720   22.5750 C.ar    1  UNL1       -0.0030
     29 C           9.5140    5.6380   23.2640 C.ar    1  UNL1       -0.0006
     30 C          10.0910    4.4820   23.7650 C.ar    1  UNL1       -0.0030
     31 C           9.4780    3.2430   23.5880 C.ar    1  UNL1       -0.0072
     32 C          10.1300    1.9980   24.1520 C.3     1  UNL1        0.0277
     33 C           9.4420    1.4570   25.3960 C.3     1  UNL1        0.0051
@<TRIPOS>BOND
     1     2     1    2
     2     3     2    1
     3     4     3    1
     4     5     4   ar
     5     6     5   ar
     6     7     6   ar
     7     8     7   ar
     8     9     8   ar
     9     9     4   ar
    10    10     3    1
    11    11    10    1
    12    12    11   ar
    13    13    12   ar
    14    14    13   ar
    15    15    14    1
    16    15    16    1
    17    17    15    1
    18    18    14   ar
    19    19    11   ar
    20    19    18   ar
    21    20    10   am
    22    21    20    2
    23    22    20    1
    24    23    22    1
    25    24     2   am
    26    25    24    1
    27    26    25   ar
    28    27    26    1
    29    28    26   ar
    30    29    28   ar
    31    30    29   ar
    32    31    30   ar
    33    31    25   ar
    34    32    31    1
    35    33    32    1
