@<TRIPOS>MOLECULE
*****
 22 24 0 0 0
SMALL
GASTEIGER

@<TRIPOS>ATOM
      1 N           6.7540    0.5180   17.5920 N.ar    1  UNL1       -0.2410
      2 C           5.6330    0.6720   20.1650 C.ar    1  UNL1       -0.0034
      3 C          10.5450   -0.4820   22.9570 C.ar    1  UNL1       -0.0129
      4 O           6.7170   -2.5300   24.5350 O.2     1  UNL1       -0.2960
      5 C           8.2000   -0.5380   24.1750 C.3     1  UNL1        0.0777
      6 C           5.0350    1.2910   19.0740 C.ar    1  UNL1        0.0177
      7 C          11.4460   -1.1860   22.1650 C.ar    1  UNL1        0.0076
      8 C           8.5690   -0.1250   21.5640 C.2     1  UNL1        0.2493
      9 C           6.8130   -0.0600   19.9230 C.ar    1  UNL1        0.0885
     10 C           7.3250   -0.1080   18.6270 C.ar    1  UNL1        0.1151
     11 C          12.3720    0.8450   23.8160 C.ar    1  UNL1        0.0006
     12 C           8.6800   -2.3230   22.9860 C.3     1  UNL1        0.0777
     13 C           7.6430   -1.9410   24.0260 C.2     1  UNL1        0.1523
     14 C          11.0200    0.5300   23.7870 C.ar    1  UNL1       -0.0038
     15 C          13.2690    0.1450   23.0220 C.ar    1  UNL1        0.0114
     16 C           5.0750    0.8530   21.5550 C.3     1  UNL1        0.0325
     17 N           7.4770   -0.6760   21.0040 N.am    1  UNL1       -0.1777
     18 O           9.1360    0.8610   21.1060 O.2     1  UNL1       -0.2726
     19 C           9.0530   -0.7880   22.8660 C.3     1  UNL1        0.1034
     20 C           5.6250    1.1970   17.8270 C.ar    1  UNL1        0.0987
     21 C          12.7880   -0.8680   22.2130 C.ar    1  UNL1        0.0574
     22 CL         13.9030   -1.7980   21.2560 Cl      1  UNL1       -0.0823
@<TRIPOS>BOND
     1     6     2   ar
     2     7     3   ar
     3     9     2   ar
     4    10     9   ar
     5    10     1   ar
     6    13    12    1
     7    13     5    1
     8    13     4    2
     9    14     3   ar
    10    14    11   ar
    11    15    11   ar
    12    16     2    1
    13    17     9    1
    14    17     8   am
    15    18     8    2
    16    19     8    1
    17    19    12    1
    18    19     5    1
    19    19     3    1
    20    20     6   ar
    21    20     1   ar
    22    21    15   ar
    23    21     7   ar
    24    22    21    1
