@<TRIPOS>MOLECULE
*****
 22 24 0 0 0
SMALL
GASTEIGER

@<TRIPOS>ATOM
      1 N           6.4250    0.6820   17.4590 N.ar    1  UNL1       -0.2426
      2 N          13.0890    4.0000   21.8400 N.am    1  UNL1       -0.1652
      3 C           7.3750   -0.6220   20.8750 C.3     1  UNL1        0.1150
      4 C          12.4420    1.1980   23.1370 C.ar    1  UNL1        0.1419
      5 O          12.7090    2.4400   23.6740 O.3     1  UNL1       -0.4582
      6 C          11.8970   -1.3150   22.1100 C.ar    1  UNL1        0.0168
      7 C           6.6200    0.1070   19.7870 C.ar    1  UNL1        0.0062
      8 C           7.0370    0.0460   18.4680 C.ar    1  UNL1        0.0951
      9 C           5.3440    1.4190   17.7620 C.ar    1  UNL1        0.0989
     10 C           4.8480    1.5480   19.0470 C.ar    1  UNL1        0.0204
     11 C          13.4820    0.3080   22.9180 C.ar    1  UNL1        0.0371
     12 C          12.5010    4.8340   23.6480 C.3     1  UNL1        0.1539
     13 C          13.2020   -0.9500   22.4030 C.ar    1  UNL1        0.0044
     14 C          12.1690    3.5340   22.9090 C.3     1  UNL1        0.2718
     15 C          13.1480    5.2520   22.3370 C.2     1  UNL1        0.2499
     16 C           8.6610    0.0770   21.2710 C.2     1  UNL1        0.2500
     17 N           9.5470   -0.7210   21.9070 N.am    1  UNL1       -0.1788
     18 O           8.8610    1.2630   21.0150 O.2     1  UNL1       -0.2726
     19 O          13.5440    6.3120   21.8480 O.2     1  UNL1       -0.2730
     20 C          10.8630   -0.4090   22.3130 C.ar    1  UNL1        0.0764
     21 C           5.4990    0.8780   20.0680 C.ar    1  UNL1       -0.0007
     22 C          11.1330    0.8480   22.8430 C.ar    1  UNL1        0.0535
@<TRIPOS>BOND
     1     5     4    1
     2     7     3    1
     3     8     7   ar
     4     8     1   ar
     5     9     1   ar
     6    10     9   ar
     7    11     4   ar
     8    13    11   ar
     9    13     6   ar
    10    14    12    1
    11    14     5    1
    12    14     2    1
    13    15    12    1
    14    15     2   am
    15    16     3    1
    16    17    16   am
    17    18    16    2
    18    19    15    2
    19    20    17    1
    20    20     6   ar
    21    21    10   ar
    22    21     7   ar
    23    22    20   ar
    24    22     4   ar
