@<TRIPOS>MOLECULE
*****
 17 18 0 0 0
SMALL
GASTEIGER

@<TRIPOS>ATOM
      1 O           9.3660    0.5690   20.9040 O.2     1  UNL1       -0.2715
      2 C           8.6310   -0.1830   21.5390 C.2     1  UNL1        0.2620
      3 N           7.3500   -0.4510   21.2070 N.am    1  UNL1       -0.1768
      4 C           6.6790    0.0880   20.0790 C.ar    1  UNL1        0.0886
      5 C           7.2310   -0.0190   18.7980 C.ar    1  UNL1        0.1151
      6 N           6.6570    0.4970   17.7060 N.ar    1  UNL1       -0.2410
      7 C           5.4880    1.1360   17.8730 C.ar    1  UNL1        0.0987
      8 C           4.8650    1.2910   19.0990 C.ar    1  UNL1        0.0177
      9 C           5.4600    0.7730   20.2410 C.ar    1  UNL1       -0.0034
     10 C           4.8280    0.9800   21.5970 C.3     1  UNL1        0.0325
     11 C           9.1000   -0.8230   22.8320 C.3     1  UNL1        0.1606
     12 N          10.5270   -0.5860   23.0350 N.3     1  UNL1       -0.2650
     13 C          10.8990   -0.7280   24.4550 C.3     1  UNL1        0.0725
     14 C          12.3710   -0.4300   24.6760 C.3     1  UNL1        0.0174
     15 C          13.2450   -1.3030   23.7990 C.3     1  UNL1        0.0029
     16 C          12.7980   -1.2330   22.3440 C.3     1  UNL1        0.0174
     17 C          11.3200   -1.5200   22.2180 C.3     1  UNL1        0.0725
@<TRIPOS>BOND
     1     2     1    2
     2     3     2   am
     3     4     3    1
     4     5     4   ar
     5     6     5   ar
     6     7     6   ar
     7     8     7   ar
     8     9     8   ar
     9     9     4   ar
    10    10     9    1
    11    11     2    1
    12    12    11    1
    13    13    12    1
    14    14    13    1
    15    15    14    1
    16    16    15    1
    17    17    12    1
    18    17    16    1
