@<TRIPOS>MOLECULE
*****
 22 25 0 0 0
SMALL
GASTEIGER

@<TRIPOS>ATOM
      1 N          10.6440   -0.5280   23.1820 N.ar    1  UNL1       -0.1932
      2 N           6.4980    0.6150   17.4170 N.ar    1  UNL1       -0.2426
      3 N          11.4980    1.4830   23.7310 N.ar    1  UNL1       -0.0589
      4 C          10.4240    0.7600   23.6060 C.ar    1  UNL1        0.1983
      5 C           7.2280   -0.5300   20.9350 C.3     1  UNL1        0.1131
      6 O          12.5330    0.5830   23.3550 O.2     1  UNL1       -0.3373
      7 C           7.7960   -0.4070   25.1800 C.3     1  UNL1        0.0237
      8 C           6.5430    0.1450   19.7730 C.ar    1  UNL1        0.0061
      9 C           7.0200   -0.0030   18.4820 C.ar    1  UNL1        0.0951
     10 C           5.4460    1.4230   17.6240 C.ar    1  UNL1        0.0989
     11 C           4.8940    1.6420   18.8740 C.ar    1  UNL1        0.0204
     12 C          12.7460   -1.6960   22.5460 C.3     1  UNL1        0.0793
     13 C           9.0090    1.2210   23.8530 C.3     1  UNL1        0.1372
     14 C           8.5250    0.9330   25.2840 C.3     1  UNL1        0.0295
     15 C          11.9240   -0.5720   23.0420 C.ar    1  UNL1        0.2359
     16 C          14.0680   -1.3930   21.9100 C.3     1  UNL1        0.0098
     17 C           8.0960    0.4750   21.6650 C.2     1  UNL1        0.2304
     18 N           8.0670    0.4600   23.0190 N.am    1  UNL1       -0.2739
     19 O           8.7590    1.2920   21.0420 O.2     1  UNL1       -0.2745
     20 C           7.1160   -0.3250   23.8290 C.3     1  UNL1        0.0938
     21 C           5.4560    0.9920   19.9570 C.ar    1  UNL1       -0.0007
     22 C          14.0300   -2.0070   23.2540 C.3     1  UNL1        0.0098
@<TRIPOS>BOND
     1     4     1   ar
     2     4     3   ar
     3     6     3   ar
     4     8     5    1
     5     9     8   ar
     6     9     2   ar
     7    10     2   ar
     8    11    10   ar
     9    13     4    1
    10    14    13    1
    11    14     7    1
    12    15     1   ar
    13    12    15    1
    14    15     6   ar
    15    16    12    1
    16    17     5    1
    17    18    17   am
    18    18    13    1
    19    19    17    2
    20    20    18    1
    21    20     7    1
    22    21    11   ar
    23    21     8   ar
    24    22    16    1
    25    22    12    1
