@<TRIPOS>MOLECULE
*****
 20 22 0 0 0
SMALL
GASTEIGER

@<TRIPOS>ATOM
      1 O           8.9480    0.9070   21.1690 O.2     1  UNL1       -0.2712
      2 C           8.5720   -0.2200   21.4800 C.2     1  UNL1        0.2658
      3 C           8.9860   -0.8650   22.7890 C.3     1  UNL1        0.1150
      4 C          10.4640   -0.6640   23.0250 C.ar    1  UNL1       -0.0121
      5 C          10.9170    0.2780   23.9400 C.ar    1  UNL1       -0.0037
      6 C          12.2540    0.6430   23.9790 C.ar    1  UNL1        0.0006
      7 C          13.1640    0.0520   23.1130 C.ar    1  UNL1        0.0114
      8 C          11.3880   -1.2980   22.2000 C.ar    1  UNL1        0.0076
      9 C          12.7160   -0.9310   22.2540 C.ar    1  UNL1        0.0574
     10 CL         13.8570   -1.7470   21.2190 Cl      1  UNL1       -0.0823
     11 N           7.7440   -0.9590   20.7200 N.am    1  UNL1       -0.0947
     12 N           7.0800   -0.3560   19.6590 N.ar    1  UNL1       -0.2145
     13 C           5.8960    0.3720   19.7570 C.ar    1  UNL1        0.1001
     14 C           5.6810    0.8480   18.4630 C.ar    1  UNL1        0.1005
     15 N           6.6790    0.3820   17.6000 N.ar    1  UNL1       -0.2226
     16 C           7.4790   -0.3180   18.3640 C.ar    1  UNL1        0.1983
     17 C           5.1320    0.7930   20.8380 C.ar    1  UNL1        0.0206
     18 C           4.1190    1.7130   20.5920 C.ar    1  UNL1        0.0016
     19 C           3.8820    2.1920   19.3010 C.ar    1  UNL1        0.0016
     20 C           4.6580    1.7650   18.2270 C.ar    1  UNL1        0.0207
@<TRIPOS>BOND
     1     2     1    2
     2     3     2    1
     3     4     3    1
     4     5     4   ar
     5     6     5   ar
     6     7     6   ar
     7     8     4   ar
     8     9     8   ar
     9     9     7   ar
    10    10     9    1
    11    11     2   am
    12    12    11    1
    13    13    12   ar
    14    14    13   ar
    15    15    14   ar
    16    16    15   ar
    17    16    12   ar
    18    17    13   ar
    19    18    17   ar
    20    19    18   ar
    21    20    19   ar
    22    20    14   ar
