@<TRIPOS>MOLECULE
*****
 19 20 0 0 0
SMALL
GASTEIGER

@<TRIPOS>ATOM
      1 F          11.6150   -4.2450   26.0080 F       1  UNL1       -0.2042
      2 C          12.1290   -3.2030   25.2830 C.ar    1  UNL1        0.1398
      3 C          13.4670   -2.9380   25.3870 C.ar    1  UNL1        0.0296
      4 C          13.9790   -1.9090   24.6120 C.ar    1  UNL1        0.0020
      5 C          13.1500   -1.1670   23.7800 C.ar    1  UNL1       -0.0041
      6 C          11.2730   -2.4830   24.4670 C.ar    1  UNL1        0.0254
      7 C          11.7870   -1.4310   23.7100 C.ar    1  UNL1       -0.0195
      8 C          10.8730   -0.5280   22.9170 C.3     1  UNL1        0.0361
      9 C           9.6430   -1.1810   22.2420 C.3     1  UNL1        0.0918
     10 C           8.8800   -0.2030   21.3710 C.2     1  UNL1        0.2459
     11 O           9.3520    0.8910   21.0580 O.2     1  UNL1       -0.2730
     12 N           7.6640   -0.6390   20.9530 N.am    1  UNL1       -0.1779
     13 C           6.8830   -0.0170   19.9340 C.ar    1  UNL1        0.0885
     14 C           5.6920    0.6770   20.2580 C.ar    1  UNL1       -0.0034
     15 C           5.2060    0.8120   21.6780 C.3     1  UNL1        0.0325
     16 C           7.2890   -0.0380   18.5970 C.ar    1  UNL1        0.1151
     17 N           6.6190    0.5580   17.6050 N.ar    1  UNL1       -0.2410
     18 C           5.4860    1.1940   17.9290 C.ar    1  UNL1        0.0987
     19 C           4.9980    1.2810   19.2180 C.ar    1  UNL1        0.0177
@<TRIPOS>BOND
     1     2     1    1
     2     3     2   ar
     3     4     3   ar
     4     5     4   ar
     5     6     2   ar
     6     7     6   ar
     7     7     5   ar
     8     8     7    1
     9     9     8    1
    10    10     9    1
    11    11    10    2
    12    12    10   am
    13    13    12    1
    14    14    13   ar
    15    15    14    1
    16    16    13   ar
    17    17    16   ar
    18    18    17   ar
    19    19    18   ar
    20    19    14   ar
