@<TRIPOS>MOLECULE
*****
 15 15 0 0 0
SMALL
GASTEIGER

@<TRIPOS>ATOM
      1 C          16.2690    2.3550  -14.6730 C.3     1  UNL1        0.2560
      2 C          16.8180    3.2930  -12.6460 C.2     1  UNL1        0.3414
      3 C          17.6750    2.4420  -11.7220 C.ar    1  UNL1        0.0770
      4 C          18.7680    1.7630  -12.2230 C.ar    1  UNL1        0.0065
      5 C          19.5420    0.9820  -11.3850 C.ar    1  UNL1        0.0016
      6 C          19.2360    0.8740  -10.0440 C.ar    1  UNL1        0.0180
      7 C          18.1460    1.5540   -9.5320 C.ar    1  UNL1        0.0908
      8 C          16.1100    3.6620   -7.7130 C.3     1  UNL1        0.2016
      9 C          17.3710    2.3370  -10.3800 C.ar    1  UNL1        0.0245
     10 N          17.8440    1.4170   -8.1140 N.pl3   1  UNL1       -0.1006
     11 O          17.0820    3.2700  -14.0080 O.3     1  UNL1       -0.4413
     12 O          15.9200    3.9580  -12.2520 O.2     1  UNL1       -0.2449
     13 O          17.2940    2.3660   -5.7270 O.2     1  UNL1       -0.1528
     14 O          18.6890    3.6390   -6.9840 O.2     1  UNL1       -0.1528
     15 S          17.5190    2.7720   -7.1270 S.O2    1  UNL1        0.0750
@<TRIPOS>BOND
     1     3     2    1
     2     4     3   ar
     3     5     4   ar
     4     6     5   ar
     5     7     6   ar
     6     9     3   ar
     7     9     7   ar
     8    10     7    1
     9    11     1    1
    10    11     2    1
    11    12     2    2
    12    15     8    1
    13    15    14    2
    14    15    13    2
    15    15    10    1
