@<TRIPOS>MOLECULE
*****
 15 14 0 0 0
SMALL
GASTEIGER

@<TRIPOS>ATOM
      1 C           1.4320   -8.6760   21.2130 C.3     1  UNL1        0.0964
      2 C           1.6810   -7.3890   21.9330 C.2     1  UNL1        0.2423
      3 C           3.1880   -6.0870   23.3570 C.3     1  UNL1        0.1819
      4 C           2.8870   -6.3600   24.8340 C.3     1  UNL1        0.1195
      5 C           3.1520   -7.8040   25.2080 C.2     1  UNL1        0.2630
      6 C           4.6050   -5.5190   23.2010 C.2     1  UNL1        0.2620
      7 C           6.6480   -5.4210   21.8380 C.3     1  UNL1        0.1413
      8 C           6.6730   -5.2800   20.3240 C.2     1  UNL1       -0.0029
      9 C           5.8440   -6.0330   19.6280 C.2     1  UNL1       -0.0031
     10 N           2.8750   -7.2450   22.5220 N.am    1  UNL1       -0.1972
     11 N           2.5020   -8.2760   26.2610 N.am    1  UNL1       -0.0877
     12 N           5.4680   -6.1100   22.3620 N.am    1  UNL1       -0.1991
     13 O           0.8290   -6.5030   21.9640 O.2     1  UNL1       -0.2733
     14 O           3.9500   -8.4830   24.5680 O.2     1  UNL1       -0.2716
     15 O           4.9130   -4.5220   23.8490 O.2     1  UNL1       -0.2715
@<TRIPOS>BOND
     1     2     1    1
     2     3     4    1
     3     5     4    1
     4     6     3    1
     5     8     7    1
     6     9     8    2
     7    10     3    1
     8    10     2   am
     9    11     5   am
    10    12     6   am
    11    12     7    1
    12    13     2    2
    13    14     5    2
    14    15     6    2
