@<TRIPOS>MOLECULE
*****
 32 35 0 0 0
SMALL
GASTEIGER

@<TRIPOS>ATOM
      1 C           6.7110   -2.2020   21.6210 C.3     1  UNL1        0.0743
      2 C           7.5390   -2.8640   22.5740 C.3     1  UNL1        0.0162
      3 C           7.0450   -4.1250   23.2760 C.3     1  UNL1        0.0028
      4 C           6.3140   -5.1450   22.6310 C.3     1  UNL1        0.0191
      5 C           5.9910   -5.0880   21.1420 C.3     1  UNL1        0.1093
      6 C           5.8710   -6.2580   23.3560 C.3     1  UNL1        0.0015
      7 O           8.8310    0.7260   20.7250 O.3     1  UNL1       -0.2050
      8 C           8.4210   -0.4560   21.3350 C.3     1  UNL1        0.2125
      9 C           6.3700   -0.3390   20.0110 C.3     1  UNL1        0.0771
     10 C           6.8130   -0.3270   18.6890 C.3     1  UNL1        0.1046
     11 C           4.8400    0.9090   18.0490 C.3     1  UNL1        0.0888
     12 C           4.4050    0.8910   19.3880 C.3     1  UNL1        0.0202
     13 C           5.1680    0.2680   20.3760 C.3     1  UNL1        0.0190
     14 O          12.2930    2.7110   23.4180 O.3     1  UNL1       -0.3562
     15 C           6.1430   -6.3550   24.7290 C.3     1  UNL1        0.0000
     16 C           6.8550   -5.3390   25.3770 C.3     1  UNL1        0.0000
     17 C           7.3050   -4.2240   24.6540 C.3     1  UNL1        0.0001
     18 C           8.8030   -2.2690   22.9150 C.3     1  UNL1        0.0054
     19 C           9.2300   -1.0880   22.2870 C.3     1  UNL1        0.0464
     20 C          10.5780   -0.5060   22.6670 C.3     1  UNL1        0.0075
     21 C          11.6470   -1.3920   22.8750 C.3     1  UNL1        0.0165
     22 C          12.9020   -0.8850   23.2490 C.3     1  UNL1        0.0823
     23 C          13.1170    0.4760   23.4210 C.3     1  UNL1        0.0458
     24 C          12.0450    1.3590   23.2320 C.3     1  UNL1        0.1165
     25 C          11.3220    3.5900   22.9430 C.3     1  UNL1        0.1420
     26 C          11.8790    4.9990   23.1230 C.3     1  UNL1        0.0321
     27 C          13.0750    5.1880   22.1870 C.3     1  UNL1        0.0027
     28 C          10.7770    0.8790   22.8560 C.3     1  UNL1        0.0298
     29 N           7.1850   -0.9950   21.0050 N.3     1  UNL1       -0.2483
     30 N           6.0570    0.2920   17.6950 N.3     1  UNL1       -0.2166
     31 N           5.7460   -5.0540   20.0380 N.3     1  UNL1       -0.1314
     32 CL         14.2600   -1.9950   23.5110 Cl      1  UNL1       -0.1149
@<TRIPOS>BOND
     1     2     1    1
     2     2     3    1
     3     4     3    1
     4     5     4    1
     5     6     4    1
     6     8     7    1
     7    10     9    1
     8    12    11    1
     9    13    12    1
    10    13     9    1
    11    15     6    1
    12    16    15    1
    13    17    16    1
    14    17     3    1
    15    18     2    1
    16    19     8    1
    17    19    18    1
    18    20    19    1
    19    21    20    1
    20    22    21    1
    21    23    22    1
    22    24    23    1
    23    24    14    1
    24    25    14    1
    25    26    25    1
    26    27    26    1
    27    28    20    1
    28    28    24    1
    29    29     9    1
    30    29     8    1
    31    29     1    1
    32    30    11    1
    33    30    10    1
    34    31     5    1
    35    32    22    1
