@<TRIPOS>MOLECULE
*****
 27 31 0 0 0
SMALL
GASTEIGER

@<TRIPOS>ATOM
      1 O           9.2810    1.2630   21.1500 O.2     1  UNL1       -0.2742
      2 C           8.8340    0.3350   21.7950 C.2     1  UNL1        0.2325
      3 C           9.4990   -0.0830   23.1040 C.3     1  UNL1        0.0946
      4 C           8.8870    0.8250   24.2000 C.3     1  UNL1        0.0601
      5 C           9.7230    2.0610   24.4580 C.3     1  UNL1        0.2062
      6 O          11.0720    1.7130   24.8090 O.3     1  UNL1       -0.4757
      7 C          11.0260    0.0500   23.0350 C.ar    1  UNL1        0.0203
      8 C          11.7050    0.9620   23.8510 C.ar    1  UNL1        0.1350
      9 C          13.0730    1.1490   23.7520 C.ar    1  UNL1        0.0374
     10 C          13.7960    0.4100   22.8360 C.ar    1  UNL1        0.0145
     11 C          11.7750   -0.7060   22.1340 C.ar    1  UNL1        0.0106
     12 C          13.1430   -0.5050   22.0470 C.ar    1  UNL1        0.0576
     13 CL         14.0620   -1.4290   20.8880 Cl      1  UNL1       -0.0823
     14 N           7.6930   -0.3190   21.4040 N.am    1  UNL1       -0.2570
     15 C           7.3480   -1.6850   21.8260 C.3     1  UNL1        0.0983
     16 C           7.7420   -1.9250   23.2580 C.3     1  UNL1        0.0227
     17 C           9.2000   -1.5530   23.4770 C.3     1  UNL1        0.0147
     18 C           6.9500    0.1220   20.2570 C.ar    1  UNL1        0.0730
     19 C           5.7800    0.9240   20.4220 C.ar    1  UNL1        0.0167
     20 C           5.2430    1.2960   21.6840 C.ar    1  UNL1        0.0013
     21 C           4.1150    2.0580   21.7710 C.ar    1  UNL1        0.0000
     22 C           3.4680    2.4980   20.6270 C.ar    1  UNL1        0.0001
     23 C           3.9370    2.1620   19.3910 C.ar    1  UNL1        0.0016
     24 C           5.0990    1.3630   19.2520 C.ar    1  UNL1        0.0204
     25 C           5.6200    0.9640   17.9960 C.ar    1  UNL1        0.0989
     26 N           6.7020    0.2120   17.8450 N.ar    1  UNL1       -0.2410
     27 C           7.3330   -0.1910   18.9540 C.ar    1  UNL1        0.1137
@<TRIPOS>BOND
     1     2     1    2
     2     3     2    1
     3     3     4    1
     4     5     4    1
     5     6     5    1
     6     7     3    1
     7     8     7   ar
     8     8     6    1
     9     9     8   ar
    10    10     9   ar
    11    11     7   ar
    12    12    11   ar
    13    12    10   ar
    14    13    12    1
    15    14     2   am
    16    15    14    1
    17    16    15    1
    18    17    16    1
    19    17     3    1
    20    18    14    1
    21    19    18   ar
    22    20    19   ar
    23    21    20   ar
    24    22    21   ar
    25    23    22   ar
    26    24    23   ar
    27    24    19   ar
    28    25    24   ar
    29    26    25   ar
    30    27    26   ar
    31    27    18   ar
