@<TRIPOS>MOLECULE
*****
 20 22 0 0 0
SMALL
GASTEIGER

@<TRIPOS>ATOM
      1 O           8.6820    0.7730   20.7790 O.2     1  UNL1       -0.2726
      2 C           8.2560   -0.3790   20.8230 C.2     1  UNL1        0.2514
      3 C           8.8960   -1.4540   21.6770 C.3     1  UNL1        0.1135
      4 C          10.1520   -0.9970   22.3760 C.ar    1  UNL1       -0.0122
      5 C          10.1010   -0.1950   23.5080 C.ar    1  UNL1       -0.0037
      6 C          11.2640    0.2980   24.0810 C.ar    1  UNL1        0.0006
      7 C          12.4980   -0.0180   23.5330 C.ar    1  UNL1        0.0114
      8 C          11.3920   -1.3430   21.8550 C.ar    1  UNL1        0.0076
      9 C          12.5390   -0.8660   22.4440 C.ar    1  UNL1        0.0574
     10 CL         14.0740   -1.4480   21.8670 Cl      1  UNL1       -0.0823
     11 N           7.2190   -0.8100   20.0500 N.am    1  UNL1       -0.1585
     12 C           6.4360    0.0550   19.3220 C.ar    1  UNL1        0.1721
     13 C           5.4270    0.7330   19.9430 C.ar    1  UNL1        0.0989
     14 N           4.7990    1.4350   18.9180 N.ar    1  UNL1       -0.2851
     15 C           5.4770    1.1480   17.7620 C.ar    1  UNL1        0.1841
     16 N           6.4840    0.3160   17.9580 N.ar    1  UNL1       -0.2068
     17 C           4.8980    0.8320   21.2550 C.ar    1  UNL1        0.0205
     18 C           3.7830    1.5870   21.4730 C.ar    1  UNL1        0.0031
     19 C           3.1610    2.2840   20.4100 C.ar    1  UNL1        0.0191
     20 C           3.6630    2.2130   19.1590 C.ar    1  UNL1        0.0816
@<TRIPOS>BOND
     1     2     1    2
     2     3     2    1
     3     4     3    1
     4     5     4   ar
     5     6     5   ar
     6     7     6   ar
     7     8     4   ar
     8     9     8   ar
     9     9     7   ar
    10    10     9    1
    11    11     2   am
    12    12    11    1
    13    13    12   ar
    14    14    13   ar
    15    15    14   ar
    16    16    15   ar
    17    16    12   ar
    18    17    13   ar
    19    18    17   ar
    20    19    18   ar
    21    20    19   ar
    22    20    14   ar
