@<TRIPOS>MOLECULE
*****
 55 51 0 0 0
SMALL
GASTEIGER

@<TRIPOS>ATOM
      1 N         -16.8290   12.8300   35.8420 N.3     1  THR1       -0.1259
      2 CA        -17.0180   12.5500   37.2920 C.3     1  THR1        0.1691
      3 C         -18.0700   11.4610   37.4660 C.3     1  THR1        0.2458
      4 O         -18.6840   11.3320   38.5240 O.3     1  THR1       -0.2020
      5 CB        -17.4770   13.8130   38.0450 C.3     1  THR1        0.1735
      6 OG1       -16.6560   14.9260   37.6650 O.3     1  THR1       -0.2215
      7 CG2       -17.3610   13.6080   39.5510 C.3     1  THR1        0.0372
      8 N         -18.2710   10.6810   36.4110 N.3     2  SER2       -0.1825
      9 CA        -19.2380    9.5900   36.4310 C.3     2  SER2        0.1554
     10 C         -18.9610    8.6450   35.2670 C.3     2  SER2        0.2443
     11 O         -18.4250    9.0600   34.2350 O.3     2  SER2       -0.2020
     12 CB        -20.6630   10.1450   36.3310 C.3     2  SER2        0.2035
     13 OG        -21.4780    9.6380   37.3740 O.3     2  SER2       -0.2187
     14 N         -19.3190    7.3770   35.4410 N.3     3  ALA3       -0.1853
     15 CA        -19.1110    6.3720   34.4060 C.3     3  ALA3        0.1226
     16 C         -20.0750    6.5790   33.2310 C.3     3  ALA3        0.2417
     17 O         -21.2550    6.8910   33.4260 O.3     3  ALA3       -0.2021
     18 CB        -19.2820    4.9770   35.0020 C.3     3  ALA3        0.0232
     19 N         -19.5650    6.4070   32.0140 N.3     4  VAL4       -0.1854
     20 CA        -20.3730    6.5830   30.8090 C.3     4  VAL4        0.1225
     21 C         -20.4910    5.2970   29.9800 C.3     4  VAL4        0.2417
     22 O         -19.5320    4.8920   29.3150 O.3     4  VAL4       -0.2021
     23 CB        -19.7860    7.7140   29.9080 C.3     4  VAL4        0.0201
     24 CG1       -20.6120    7.8700   28.6360 C.3     4  VAL4        0.0016
     25 CG2       -19.7570    9.0280   30.6740 C.3     4  VAL4        0.0016
     26 N         -21.6610    4.6540   30.0350 N.3     5  LEU5       -0.1854
     27 CA        -21.9010    3.4340   29.2590 C.3     5  LEU5        0.1226
     28 C         -21.9740    3.8650   27.8050 C.3     5  LEU5        0.2417
     29 O         -23.0400    4.1950   27.2880 O.3     5  LEU5       -0.2021
     30 CB        -23.2140    2.7470   29.6620 C.3     5  LEU5        0.0216
     31 CG        -23.2500    1.9360   30.9660 C.3     5  LEU5        0.0015
     32 CD1       -24.4190    0.9600   30.9080 C.3     5  LEU5        0.0000
     33 CD2       -21.9600    1.1510   31.1500 C.3     5  LEU5        0.0000
     34 N         -20.8150    3.8450   27.1610 N.3     6  GLN6       -0.1854
     35 CA        -20.6470    4.2740   25.7820 C.3     6  GLN6        0.1227
     36 C         -21.4650    3.6180   24.6680 C.3     6  GLN6        0.2418
     37 O         -20.9190    2.9330   23.8010 O.3     6  GLN6       -0.2021
     38 CB        -19.1600    4.2220   25.4520 C.3     6  GLN6        0.0258
     39 CG        -18.3550    5.0780   26.4180 C.3     6  GLN6        0.0544
     40 CD        -16.8750    5.0610   26.1300 C.3     6  GLN6        0.2419
     41 OE1       -16.2140    4.0260   26.2580 O.3     6  GLN6       -0.2022
     42 NE2       -16.3420    6.2110   25.7340 N.3     6  GLN6       -0.0968
     43 N         -22.7750    3.8600   24.6920 N.3     7  SER7       -0.1827
     44 CA        -23.6920    3.3520   23.6780 C.3     7  SER7        0.1554
     45 C         -23.9900    4.5370   22.7570 C.3     7  SER7        0.2443
     46 O         -23.8090    5.6890   23.1550 O.3     7  SER7       -0.2020
     47 CB        -24.9880    2.8460   24.3270 C.3     7  SER7        0.2035
     48 OG        -25.6600    3.8850   25.0210 O.3     7  SER7       -0.2187
     49 N         -24.4350    4.2620   21.5340 N.3     8  GLY8       -0.1852
     50 CA        -24.7290    5.3340   20.5970 C.3     8  GLY8        0.1268
     51 C         -26.1970    5.7100   20.4870 C.3     8  GLY8        0.2009
     52 O         -27.0370    5.0960   21.1800 O.3     8  GLY8       -0.2188
     53 O         -27.8160    9.1370   20.5950 O.3     1  HOH1        0.0000
     54 O         -27.0200    6.1760   24.1620 O.3     2  HOH2        0.0000
     55 O         -16.1140    8.8490   32.5940 O.3     3  HOH3        0.0000
@<TRIPOS>BOND
     1     2     1    1
     2     3     2    1
     3     4     3    1
     4     5     2    1
     5     6     5    1
     6     5     7    1
     7     8     3    1
     8     9     8    1
     9    10     9    1
    10    11    10    1
    11     9    12    1
    12    13    12    1
    13    14    10    1
    14    15    14    1
    15    16    15    1
    16    17    16    1
    17    15    18    1
    18    19    16    1
    19    20    19    1
    20    21    20    1
    21    22    21    1
    22    23    20    1
    23    23    24    1
    24    25    23    1
    25    26    21    1
    26    27    26    1
    27    28    27    1
    28    29    28    1
    29    27    30    1
    30    31    30    1
    31    31    32    1
    32    33    31    1
    33    34    28    1
    34    35    34    1
    35    36    35    1
    36    37    36    1
    37    35    38    1
    38    39    38    1
    39    40    39    1
    40    41    40    1
    41    42    40    1
    42    43    36    1
    43    44    43    1
    44    45    44    1
    45    46    45    1
    46    44    47    1
    47    48    47    1
    48    49    45    1
    49    50    49    1
    50    51    50    1
    51    52    51    1
