
     RDKit          3D

 55 51  0  0  0  0  0  0  0  0999 V2000
  -16.8290   12.8300   35.8420 N   0  0  0  0  0  0  0  0  0  0  0  0
  -17.0180   12.5500   37.2920 C   0  0  2  0  0  0  0  0  0  0  0  0
  -18.0700   11.4610   37.4660 C   0  0  0  0  0  0  0  0  0  0  0  0
  -18.6840   11.3320   38.5240 O   0  0  0  0  0  0  0  0  0  0  0  0
  -17.4770   13.8130   38.0450 C   0  0  2  0  0  0  0  0  0  0  0  0
  -16.6560   14.9260   37.6650 O   0  0  0  0  0  0  0  0  0  0  0  0
  -17.3610   13.6080   39.5510 C   0  0  0  0  0  0  0  0  0  0  0  0
  -18.2710   10.6810   36.4110 N   0  0  0  0  0  0  0  0  0  0  0  0
  -19.2380    9.5900   36.4310 C   0  0  2  0  0  0  0  0  0  0  0  0
  -18.9610    8.6450   35.2670 C   0  0  0  0  0  0  0  0  0  0  0  0
  -18.4250    9.0600   34.2350 O   0  0  0  0  0  0  0  0  0  0  0  0
  -20.6630   10.1450   36.3310 C   0  0  0  0  0  0  0  0  0  0  0  0
  -21.4780    9.6380   37.3740 O   0  0  0  0  0  0  0  0  0  0  0  0
  -19.3190    7.3770   35.4410 N   0  0  0  0  0  0  0  0  0  0  0  0
  -19.1110    6.3720   34.4060 C   0  0  2  0  0  0  0  0  0  0  0  0
  -20.0750    6.5790   33.2310 C   0  0  0  0  0  0  0  0  0  0  0  0
  -21.2550    6.8910   33.4260 O   0  0  0  0  0  0  0  0  0  0  0  0
  -19.2820    4.9770   35.0020 C   0  0  0  0  0  0  0  0  0  0  0  0
  -19.5650    6.4070   32.0140 N   0  0  0  0  0  0  0  0  0  0  0  0
  -20.3730    6.5830   30.8090 C   0  0  2  0  0  0  0  0  0  0  0  0
  -20.4910    5.2970   29.9800 C   0  0  0  0  0  0  0  0  0  0  0  0
  -19.5320    4.8920   29.3150 O   0  0  0  0  0  0  0  0  0  0  0  0
  -19.7860    7.7140   29.9080 C   0  0  1  0  0  0  0  0  0  0  0  0
  -20.6120    7.8700   28.6360 C   0  0  0  0  0  0  0  0  0  0  0  0
  -19.7570    9.0280   30.6740 C   0  0  0  0  0  0  0  0  0  0  0  0
  -21.6610    4.6540   30.0350 N   0  0  0  0  0  0  0  0  0  0  0  0
  -21.9010    3.4340   29.2590 C   0  0  2  0  0  0  0  0  0  0  0  0
  -21.9740    3.8650   27.8050 C   0  0  0  0  0  0  0  0  0  0  0  0
  -23.0400    4.1950   27.2880 O   0  0  0  0  0  0  0  0  0  0  0  0
  -23.2140    2.7470   29.6620 C   0  0  0  0  0  0  0  0  0  0  0  0
  -23.2500    1.9360   30.9660 C   0  0  1  0  0  0  0  0  0  0  0  0
  -24.4190    0.9600   30.9080 C   0  0  0  0  0  0  0  0  0  0  0  0
  -21.9600    1.1510   31.1500 C   0  0  0  0  0  0  0  0  0  0  0  0
  -20.8150    3.8450   27.1610 N   0  0  0  0  0  0  0  0  0  0  0  0
  -20.6470    4.2740   25.7820 C   0  0  2  0  0  0  0  0  0  0  0  0
  -21.4650    3.6180   24.6680 C   0  0  0  0  0  0  0  0  0  0  0  0
  -20.9190    2.9330   23.8010 O   0  0  0  0  0  0  0  0  0  0  0  0
  -19.1600    4.2220   25.4520 C   0  0  0  0  0  0  0  0  0  0  0  0
  -18.3550    5.0780   26.4180 C   0  0  0  0  0  0  0  0  0  0  0  0
  -16.8750    5.0610   26.1300 C   0  0  0  0  0  0  0  0  0  0  0  0
  -16.2140    4.0260   26.2580 O   0  0  0  0  0  0  0  0  0  0  0  0
  -16.3420    6.2110   25.7340 N   0  0  0  0  0  0  0  0  0  0  0  0
  -22.7750    3.8600   24.6920 N   0  0  0  0  0  0  0  0  0  0  0  0
  -23.6920    3.3520   23.6780 C   0  0  2  0  0  0  0  0  0  0  0  0
  -23.9900    4.5370   22.7570 C   0  0  0  0  0  0  0  0  0  0  0  0
  -23.8090    5.6890   23.1550 O   0  0  0  0  0  0  0  0  0  0  0  0
  -24.9880    2.8460   24.3270 C   0  0  0  0  0  0  0  0  0  0  0  0
  -25.6600    3.8850   25.0210 O   0  0  0  0  0  0  0  0  0  0  0  0
  -24.4350    4.2620   21.5340 N   0  0  0  0  0  0  0  0  0  0  0  0
  -24.7290    5.3340   20.5970 C   0  0  0  0  0  0  0  0  0  0  0  0
  -26.1970    5.7100   20.4870 C   0  0  0  0  0  0  0  0  0  0  0  0
  -27.0370    5.0960   21.1800 O   0  0  0  0  0  0  0  0  0  0  0  0
  -27.8160    9.1370   20.5950 O   0  0  0  0  0  0  0  0  0  0  0  0
  -27.0200    6.1760   24.1620 O   0  0  0  0  0  0  0  0  0  0  0  0
  -16.1140    8.8490   32.5940 O   0  0  0  0  0  0  0  0  0  0  0  0
  2  1  1  6
  3  2  1  0
  4  3  1  0
  5  2  1  0
  6  5  1  0
  5  7  1  1
  8  3  1  0
  9  8  1  0
 10  9  1  0
 11 10  1  0
  9 12  1  6
 13 12  1  0
 14 10  1  0
 15 14  1  0
 16 15  1  0
 17 16  1  0
 15 18  1  1
 19 16  1  0
 20 19  1  1
 21 20  1  0
 22 21  1  0
 23 20  1  0
 23 24  1  6
 25 23  1  0
 26 21  1  0
 27 26  1  0
 28 27  1  0
 29 28  1  0
 27 30  1  1
 31 30  1  0
 31 32  1  6
 33 31  1  0
 34 28  1  0
 35 34  1  0
 36 35  1  0
 37 36  1  0
 35 38  1  6
 39 38  1  0
 40 39  1  0
 41 40  1  0
 42 40  1  0
 43 36  1  0
 44 43  1  0
 45 44  1  0
 46 45  1  0
 44 47  1  1
 48 47  1  0
 49 45  1  0
 50 49  1  0
 51 50  1  0
 52 51  1  0
M  END
