@<TRIPOS>MOLECULE
*****
 25 27 0 0 0
SMALL
GASTEIGER

@<TRIPOS>ATOM
      1 O           7.0000    0.7960   24.9130 O.3     1  UNL1       -0.0811
      2 S           5.6770    0.8240   25.4590 S.3     1  UNL1       -0.0414
      3 O           5.4790    1.2350   26.8150 O.3     1  UNL1       -0.0811
      4 N           4.8070    1.8180   24.5340 N.3     1  UNL1       -0.1031
      5 C           3.3800    1.9790   24.8230 C.3     1  UNL1        0.1131
      6 C           2.7510    3.0810   24.0050 C.3     1  UNL1        0.0207
      7 C           1.2760    3.2230   24.2920 C.3     1  UNL1        0.0015
      8 C           0.3410    2.4640   23.5980 C.3     1  UNL1        0.0000
      9 C          -1.0130    2.5640   23.8910 C.3     1  UNL1        0.0000
     10 C          -1.4480    3.4300   24.8740 C.3     1  UNL1        0.0000
     11 C          -0.5310    4.2000   25.5630 C.3     1  UNL1        0.0000
     12 C           0.8230    4.0960   25.2740 C.3     1  UNL1        0.0000
     13 C           4.9920   -0.8030   25.2750 C.3     1  UNL1        0.1399
     14 C           4.2920   -1.3190   26.3590 C.3     1  UNL1        0.0246
     15 C           3.6820   -2.5640   26.2660 C.3     1  UNL1        0.0027
     16 C           3.7740   -3.3120   25.1000 C.3     1  UNL1        0.0124
     17 C           4.4940   -2.7970   24.0270 C.3     1  UNL1        0.0680
     18 C           5.1090   -1.5400   24.0840 C.3     1  UNL1        0.1063
     19 N           5.7880   -1.1490   22.9380 N.3     1  UNL1       -0.1915
     20 S           4.7950   -3.5240   22.4710 S.3     1  UNL1       -0.1055
     21 C           5.6950   -2.0850   22.0350 C.3     1  UNL1        0.1978
     22 N           6.2880   -1.8870   20.8020 N.3     1  UNL1       -0.1630
     23 C           6.2650   -2.7720   19.7560 C.3     1  UNL1        0.2276
     24 O           5.6550   -3.8380   19.7640 O.3     1  UNL1       -0.2036
     25 C           7.0790   -2.3410   18.5560 C.3     1  UNL1        0.0556
@<TRIPOS>BOND
     1     2     1    1
     2     3     2    1
     3     4     2    1
     4     5     4    1
     5     6     5    1
     6     7     6    1
     7     8     7    1
     8     9     8    1
     9    10     9    1
    10    11    10    1
    11    12    11    1
    12    12     7    1
    13    13     2    1
    14    14    13    1
    15    15    14    1
    16    16    15    1
    17    17    16    1
    18    18    17    1
    19    18    13    1
    20    19    18    1
    21    20    17    1
    22    21    20    1
    23    21    19    1
    24    22    21    1
    25    23    22    1
    26    24    23    1
    27    25    23    1
