@<TRIPOS>MOLECULE
*****
 24 27 0 0 0
SMALL
GASTEIGER

@<TRIPOS>ATOM
      1 O           9.1800    0.9900   21.0340 O.2     1  UNL1       -0.2726
      2 C           8.6110   -0.0250   21.4530 C.2     1  UNL1        0.2507
      3 C           9.1350   -0.8170   22.6520 C.3     1  UNL1        0.1179
      4 C           8.3880   -0.4140   23.9290 C.3     1  UNL1        0.1026
      5 N           8.6090    1.0070   24.2180 N.3     1  UNL1       -0.2124
      6 C          10.0150    1.3060   24.5010 C.3     1  UNL1        0.1147
      7 C          10.6030   -0.4760   22.7890 C.ar    1  UNL1       -0.0142
      8 C          11.0090    0.5580   23.6470 C.ar    1  UNL1       -0.0082
      9 C          12.3670    0.8600   23.7480 C.ar    1  UNL1       -0.0023
     10 C          13.3100    0.1610   23.0150 C.ar    1  UNL1        0.0111
     11 C          11.5580   -1.1830   22.0590 C.ar    1  UNL1        0.0074
     12 C          12.8890   -0.8380   22.1660 C.ar    1  UNL1        0.0574
     13 CL         14.0460   -1.6140   21.1220 Cl      1  UNL1       -0.0823
     14 N           7.4680   -0.5150   20.9120 N.am    1  UNL1       -0.1773
     15 C           6.7420    0.0100   19.8240 C.ar    1  UNL1        0.0925
     16 C           5.6310    0.8710   20.0920 C.ar    1  UNL1        0.0184
     17 C           5.1370    1.1430   21.3940 C.ar    1  UNL1        0.0014
     18 C           4.0800    1.9890   21.5830 C.ar    1  UNL1        0.0000
     19 C           3.4630    2.6030   20.5010 C.ar    1  UNL1        0.0001
     20 C           3.9010    2.3720   19.2270 C.ar    1  UNL1        0.0016
     21 C           4.9920    1.5010   18.9870 C.ar    1  UNL1        0.0204
     22 C           5.4880    1.2190   17.6900 C.ar    1  UNL1        0.0989
     23 N           6.5090    0.4100   17.4420 N.ar    1  UNL1       -0.2410
     24 C           7.1080   -0.1710   18.4900 C.ar    1  UNL1        0.1154
@<TRIPOS>BOND
     1     2     1    2
     2     3     2    1
     3     4     3    1
     4     5     4    1
     5     6     5    1
     6     7     3    1
     7     8     7   ar
     8     8     6    1
     9     9     8   ar
    10    10     9   ar
    11    11     7   ar
    12    12    11   ar
    13    12    10   ar
    14    13    12    1
    15    14     2   am
    16    15    14    1
    17    16    15   ar
    18    17    16   ar
    19    18    17   ar
    20    19    18   ar
    21    20    19   ar
    22    21    20   ar
    23    21    16   ar
    24    22    21   ar
    25    23    22   ar
    26    24    23   ar
    27    24    15   ar
