@<TRIPOS>MOLECULE
*****
 23 25 0 0 0
SMALL
GASTEIGER

@<TRIPOS>ATOM
      1 O           9.1190    0.5810   20.8950 O.2     1  UNL1       -0.2726
      2 C           8.5110   -0.4690   21.0960 C.2     1  UNL1        0.2501
      3 C           8.9310   -1.4500   22.1750 C.3     1  UNL1        0.1165
      4 C          10.3240   -1.0830   22.6300 C.ar    1  UNL1        0.0218
      5 C          11.4370   -1.5450   21.9340 C.ar    1  UNL1        0.0106
      6 C          12.6890   -1.0570   22.2400 C.ar    1  UNL1        0.0576
      7 CL         14.0560   -1.6050   21.3140 Cl      1  UNL1       -0.0823
      8 C          12.8780   -0.1260   23.2420 C.ar    1  UNL1        0.0145
      9 C          11.7860    0.3160   23.9690 C.ar    1  UNL1        0.0374
     10 C          10.5160   -0.1720   23.6700 C.ar    1  UNL1        0.1352
     11 O           9.3780    0.1690   24.3470 O.3     1  UNL1       -0.4717
     12 C           9.4700    1.1990   25.3310 C.3     1  UNL1        0.2525
     13 N           7.3980   -0.8370   20.4240 N.am    1  UNL1       -0.1773
     14 C           6.6630   -0.0980   19.4840 C.ar    1  UNL1        0.0925
     15 C           5.5040    0.5990   19.9330 C.ar    1  UNL1        0.0184
     16 C           5.0710    0.6230   21.2830 C.ar    1  UNL1        0.0014
     17 C           3.9710    1.3400   21.6550 C.ar    1  UNL1        0.0000
     18 C           3.2460    2.0580   20.7190 C.ar    1  UNL1        0.0001
     19 C           3.6290    2.0810   19.4120 C.ar    1  UNL1        0.0016
     20 C           4.7680    1.3590   18.9810 C.ar    1  UNL1        0.0204
     21 C           5.2430    1.3800   17.6480 C.ar    1  UNL1        0.0989
     22 N           6.3210    0.7270   17.2300 N.ar    1  UNL1       -0.2410
     23 C           7.0030    0.0130   18.1360 C.ar    1  UNL1        0.1154
@<TRIPOS>BOND
     1     2     1    2
     2     3     2    1
     3     4     3    1
     4     5     4   ar
     5     6     5   ar
     6     7     6    1
     7     8     6   ar
     8     9     8   ar
     9    10     4   ar
    10    10     9   ar
    11    11    10    1
    12    12    11    1
    13    13     2   am
    14    14    13    1
    15    15    14   ar
    16    16    15   ar
    17    17    16   ar
    18    18    17   ar
    19    19    18   ar
    20    20    19   ar
    21    20    15   ar
    22    21    20   ar
    23    22    21   ar
    24    23    22   ar
    25    23    14   ar
