@<TRIPOS>MOLECULE
*****
 24 27 0 0 0
SMALL
GASTEIGER

@<TRIPOS>ATOM
      1 O           9.0280    0.7980   20.9080 O.2     1  UNL1       -0.2711
      2 C           8.4620   -0.2510   21.2270 C.2     1  UNL1        0.2656
      3 C           9.0740   -1.2360   22.2870 C.3     1  UNL1        0.1729
      4 N           8.2000   -1.1900   23.4720 N.3     1  UNL1       -0.2057
      5 C           8.1390    0.1640   24.0440 C.3     1  UNL1        0.0942
      6 C           9.4780    0.5500   24.6350 C.3     1  UNL1        0.0449
      7 C          10.4550   -0.7570   22.6850 C.ar    1  UNL1       -0.0008
      8 C          10.6310    0.1380   23.7480 C.ar    1  UNL1       -0.0229
      9 C          11.9210    0.5700   24.0570 C.ar    1  UNL1       -0.0036
     10 C          13.0170    0.1030   23.3560 C.ar    1  UNL1        0.0111
     11 C          11.5620   -1.2380   21.9900 C.ar    1  UNL1        0.0086
     12 C          12.8220   -0.8020   22.3380 C.ar    1  UNL1        0.0574
     13 CL         14.1930   -1.4230   21.4670 Cl      1  UNL1       -0.0823
     14 N           7.2700   -0.6480   20.7270 N.am    1  UNL1       -0.1762
     15 C           6.4800   -0.0020   19.7580 C.ar    1  UNL1        0.0925
     16 C           5.4020    0.8280   20.1920 C.ar    1  UNL1        0.0184
     17 C           5.0270    0.9870   21.5550 C.ar    1  UNL1        0.0014
     18 C           3.9890    1.8050   21.9070 C.ar    1  UNL1        0.0000
     19 C           3.2780    2.5030   20.9400 C.ar    1  UNL1        0.0001
     20 C           3.6010    2.3870   19.6180 C.ar    1  UNL1        0.0016
     21 C           4.6660    1.5430   19.2100 C.ar    1  UNL1        0.0204
     22 C           5.0430    1.3700   17.8550 C.ar    1  UNL1        0.0989
     23 N           6.0360    0.5900   17.4490 N.ar    1  UNL1       -0.2410
     24 C           6.7250   -0.0710   18.3860 C.ar    1  UNL1        0.1154
@<TRIPOS>BOND
     1     2     1    2
     2     3     2    1
     3     4     3    1
     4     5     4    1
     5     6     5    1
     6     7     3    1
     7     8     7   ar
     8     8     6    1
     9     9     8   ar
    10    10     9   ar
    11    11     7   ar
    12    12    11   ar
    13    12    10   ar
    14    13    12    1
    15    14     2   am
    16    15    14    1
    17    16    15   ar
    18    17    16   ar
    19    18    17   ar
    20    19    18   ar
    21    20    19   ar
    22    21    20   ar
    23    21    16   ar
    24    22    21   ar
    25    23    22   ar
    26    24    23   ar
    27    24    15   ar
