@<TRIPOS>MOLECULE
*****
 28 31 0 0 0
SMALL
GASTEIGER

@<TRIPOS>ATOM
      1 O           9.0100    1.5210   21.1450 O.2     1  UNL1       -0.2723
      2 C           8.9110    0.4440   21.7100 C.2     1  UNL1        0.2546
      3 C           8.2490   -0.7490   21.0170 C.3     1  UNL1        0.2141
      4 N           7.3280   -0.3260   19.9840 N.ar    1  UNL1       -0.2223
      5 C           6.1940    0.4240   20.0760 C.ar    1  UNL1        0.0994
      6 C           5.3760    0.7980   21.1320 C.ar    1  UNL1        0.0204
      7 C           4.2530    1.5620   20.8380 C.ar    1  UNL1        0.0016
      8 C           3.9690    1.9430   19.5240 C.ar    1  UNL1        0.0017
      9 C           4.8070    1.5760   18.4760 C.ar    1  UNL1        0.0225
     10 C           5.9280    0.8030   18.7620 C.ar    1  UNL1        0.1217
     11 N           6.9070    0.2810   17.9480 N.ar    1  UNL1       -0.1288
     12 N           7.7410   -0.3910   18.6920 N.ar    1  UNL1       -0.0634
     13 N           9.3820    0.2340   22.9730 N.am    1  UNL1       -0.2511
     14 C           9.9450    1.3680   23.7010 C.3     1  UNL1        0.1457
     15 C          11.3820    1.5820   23.3770 C.ar    1  UNL1        0.1025
     16 N          11.8540    2.7830   22.9930 N.ar    1  UNL1       -0.1506
     17 N          13.1980    2.7330   22.7600 N.ar    1  UNL1       -0.1466
     18 C          13.5450    1.4750   22.9940 C.ar    1  UNL1        0.1235
     19 C          12.4460    0.7150   23.3870 C.ar    1  UNL1        0.0407
     20 C           9.3090   -1.0250   23.6370 C.ar    1  UNL1        0.0543
     21 C          10.1710   -2.0620   23.2940 C.ar    1  UNL1        0.0162
     22 C          10.0840   -3.2820   23.9380 C.ar    1  UNL1        0.0158
     23 C           8.3600   -1.2270   24.6280 C.ar    1  UNL1        0.0162
     24 C           8.2830   -2.4380   25.2890 C.ar    1  UNL1        0.0158
     25 C           9.1470   -3.4900   24.9640 C.ar    1  UNL1        0.0480
     26 N           9.0970   -4.6850   25.6500 N.pl3   1  UNL1       -0.3041
     27 C           8.0270   -4.9780   26.5960 C.3     1  UNL1        0.1122
     28 C           9.9960   -5.7780   25.3240 C.3     1  UNL1        0.1122
@<TRIPOS>BOND
     1     2     1    2
     2     3     2    1
     3     4     3    1
     4     5     4   ar
     5     6     5   ar
     6     7     6   ar
     7     8     7   ar
     8     9     8   ar
     9    10     9   ar
    10    10     5   ar
    11    11    10   ar
    12    12    11   ar
    13    12     4   ar
    14    13     2   am
    15    14    13    1
    16    15    14    1
    17    16    15   ar
    18    17    16   ar
    19    18    17   ar
    20    19    18   ar
    21    19    15   ar
    22    20    13    1
    23    21    20   ar
    24    22    21   ar
    25    23    20   ar
    26    24    23   ar
    27    25    24   ar
    28    25    22   ar
    29    26    25    1
    30    27    26    1
    31    28    26    1
