@<TRIPOS>MOLECULE
*****
 24 27 0 0 0
SMALL
GASTEIGER

@<TRIPOS>ATOM
      1 O           9.4210    1.2350   21.1300 O.2     1  UNL1       -0.2742
      2 C           8.9980    0.2460   21.7060 C.2     1  UNL1        0.2330
      3 C           9.6970   -0.2890   22.9520 C.3     1  UNL1        0.0993
      4 C          11.2020   -0.0700   22.8980 C.ar    1  UNL1       -0.0130
      5 C          11.8100    0.8960   23.6910 C.ar    1  UNL1       -0.0038
      6 C          13.1670    1.1570   23.5740 C.ar    1  UNL1        0.0006
      7 C          13.9400    0.4510   22.6630 C.ar    1  UNL1        0.0114
      8 C          11.9850   -0.8110   22.0170 C.ar    1  UNL1        0.0076
      9 C          13.3350   -0.5350   21.9060 C.ar    1  UNL1        0.0574
     10 CL         14.2960   -1.4500   20.7750 Cl      1  UNL1       -0.0823
     11 N           7.8450   -0.3820   21.3050 N.am    1  UNL1       -0.2569
     12 C           7.3980   -1.7170   21.7490 C.3     1  UNL1        0.0983
     13 C           7.8820   -2.0160   23.1530 C.3     1  UNL1        0.0227
     14 C           9.3790   -1.7560   23.2580 C.3     1  UNL1        0.0153
     15 C           7.0950    0.1360   20.2010 C.ar    1  UNL1        0.0730
     16 C           5.9600    0.9770   20.3820 C.ar    1  UNL1        0.0167
     17 C           5.4560    1.3690   21.6520 C.ar    1  UNL1        0.0013
     18 C           4.3410    2.1520   21.7550 C.ar    1  UNL1        0.0000
     19 C           3.6820    2.5980   20.6160 C.ar    1  UNL1        0.0001
     20 C           4.1350    2.2600   19.3710 C.ar    1  UNL1        0.0016
     21 C           5.2780    1.4370   19.2190 C.ar    1  UNL1        0.0204
     22 C           5.7790    1.0320   17.9550 C.ar    1  UNL1        0.0989
     23 N           6.8390    0.2480   17.7920 N.ar    1  UNL1       -0.2410
     24 C           7.4680   -0.1810   18.8970 C.ar    1  UNL1        0.1137
@<TRIPOS>BOND
     1     2     1    2
     2     3     2    1
     3     3     4    1
     4     5     4   ar
     5     6     5   ar
     6     7     6   ar
     7     8     4   ar
     8     9     8   ar
     9     9     7   ar
    10    10     9    1
    11    11     2   am
    12    12    11    1
    13    13    12    1
    14    14    13    1
    15    14     3    1
    16    15    11    1
    17    16    15   ar
    18    17    16   ar
    19    18    17   ar
    20    19    18   ar
    21    20    19   ar
    22    21    20   ar
    23    21    16   ar
    24    22    21   ar
    25    23    22   ar
    26    24    23   ar
    27    24    15   ar
