@<TRIPOS>MOLECULE
*****
 31 34 0 0 0
SMALL
GASTEIGER

@<TRIPOS>ATOM
      1 O           9.0840    1.4220   21.0540 O.2     1  UNL1       -0.2741
      2 C           8.7720    0.3800   21.6140 C.2     1  UNL1        0.2351
      3 C           7.8780   -0.6290   20.9140 C.3     1  UNL1        0.1135
      4 C           6.9530    0.0020   19.8840 C.ar    1  UNL1        0.0061
      5 C           5.8420    0.8030   20.2840 C.ar    1  UNL1       -0.0005
      6 C           5.5080    1.0510   21.6440 C.ar    1  UNL1       -0.0002
      7 C           4.4560    1.8580   21.9730 C.ar    1  UNL1       -0.0000
      8 C           3.6850    2.4550   20.9850 C.ar    1  UNL1        0.0000
      9 C           3.9550    2.2370   19.6640 C.ar    1  UNL1        0.0015
     10 C           5.0400    1.4070   19.2770 C.ar    1  UNL1        0.0189
     11 C           5.3960    1.1650   17.9260 C.ar    1  UNL1        0.0988
     12 N           6.4290    0.4190   17.5550 N.ar    1  UNL1       -0.2426
     13 C           7.1680   -0.1450   18.5230 C.ar    1  UNL1        0.0951
     14 N           9.2030    0.0890   22.8780 N.am    1  UNL1       -0.2392
     15 C           8.9540   -1.1260   23.5390 C.ar    1  UNL1        0.1378
     16 C           8.0480   -1.2160   24.5960 C.ar    1  UNL1        0.0360
     17 C           7.9850   -2.4190   25.2790 C.ar    1  UNL1        0.0190
     18 N           9.7290   -2.1390   23.1360 N.ar    1  UNL1       -0.2275
     19 C           9.6530   -3.2980   23.8080 C.ar    1  UNL1        0.1148
     20 C           8.8040   -3.4820   24.8990 C.ar    1  UNL1        0.0675
     21 N           8.8100   -4.6830   25.5990 N.pl3   1  UNL1       -0.3029
     22 C           7.6060   -5.1540   26.2680 C.3     1  UNL1        0.1123
     23 C           9.6820   -5.7780   25.1970 C.3     1  UNL1        0.1123
     24 C           9.9980    1.1020   23.5790 C.3     1  UNL1        0.1262
     25 C          11.4710    1.0730   23.2440 C.ar    1  UNL1       -0.0011
     26 C          12.0240    0.0320   22.4990 C.ar    1  UNL1        0.0088
     27 C          13.3710    0.0590   22.1820 C.ar    1  UNL1        0.0574
     28 CL         14.0330   -1.2030   21.1810 Cl      1  UNL1       -0.0823
     29 C          14.1990    1.0700   22.6180 C.ar    1  UNL1        0.0114
     30 C          13.6500    2.1000   23.3600 C.ar    1  UNL1        0.0006
     31 C          12.3000    2.1030   23.6650 C.ar    1  UNL1       -0.0025
@<TRIPOS>BOND
     1     2     1    2
     2     3     2    1
     3     4     3    1
     4     5     4   ar
     5     6     5   ar
     6     7     6   ar
     7     8     7   ar
     8     9     8   ar
     9    10     9   ar
    10    10     5   ar
    11    11    10   ar
    12    12    11   ar
    13    13    12   ar
    14    13     4   ar
    15    14     2   am
    16    15    14    1
    17    16    15   ar
    18    17    16   ar
    19    18    15   ar
    20    19    18   ar
    21    20    19   ar
    22    20    17   ar
    23    21    20    1
    24    22    21    1
    25    23    21    1
    26    24    14    1
    27    25    24    1
    28    26    25   ar
    29    27    26   ar
    30    28    27    1
    31    29    27   ar
    32    30    29   ar
    33    31    30   ar
    34    31    25   ar
