@<TRIPOS>MOLECULE
*****
 18 19 0 0 0
SMALL
GASTEIGER

@<TRIPOS>ATOM
      1 CL         14.0330   -1.6570   21.4790 Cl      1  UNL1       -0.0822
      2 C          12.7480   -0.8870   22.3660 C.ar    1  UNL1        0.0590
      3 C          13.0570    0.0960   23.2870 C.ar    1  UNL1        0.0115
      4 C          12.0240    0.7090   23.9820 C.ar    1  UNL1        0.0022
      5 C          10.7060    0.3570   23.7360 C.ar    1  UNL1        0.0167
      6 C          11.4470   -1.2670   22.1130 C.ar    1  UNL1        0.0280
      7 C          10.4170   -0.6190   22.7860 C.ar    1  UNL1        0.0758
      8 N           9.1100   -0.8310   22.3010 N.am    1  UNL1       -0.1607
      9 C           8.5740   -0.1020   21.2770 C.2     1  UNL1        0.3478
     10 O           9.1180    0.8940   20.8200 O.2     1  UNL1       -0.2484
     11 N           7.3850   -0.5870   20.8140 N.am    1  UNL1       -0.1594
     12 C           6.6890    0.0420   19.7590 C.ar    1  UNL1        0.0901
     13 C           5.5170    0.7730   20.0290 C.ar    1  UNL1       -0.0034
     14 C           5.0210    0.9980   21.4350 C.3     1  UNL1        0.0325
     15 C           7.1570   -0.0200   18.4460 C.ar    1  UNL1        0.1151
     16 N           6.5400    0.5750   17.4190 N.ar    1  UNL1       -0.2410
     17 C           5.4130    1.2500   17.6840 C.ar    1  UNL1        0.0987
     18 C           4.8740    1.3680   18.9500 C.ar    1  UNL1        0.0177
@<TRIPOS>BOND
     1     2     1    1
     2     3     2   ar
     3     4     3   ar
     4     5     4   ar
     5     6     2   ar
     6     7     5   ar
     7     7     6   ar
     8     8     7    1
     9     9     8   am
    10    10     9    2
    11    11     9   am
    12    12    11    1
    13    13    12   ar
    14    14    13    1
    15    15    12   ar
    16    16    15   ar
    17    17    16   ar
    18    18    17   ar
    19    18    13   ar
