@<TRIPOS>MOLECULE
*****
 31 34 0 0 0
SMALL
GASTEIGER

@<TRIPOS>ATOM
      1 CL         14.1960   -1.5790   20.9430 Cl      1  UNL1       -0.0823
      2 C          13.2490   -0.7220   22.1300 C.ar    1  UNL1        0.0576
      3 C          13.8830    0.1520   22.9960 C.ar    1  UNL1        0.0145
      4 C          13.1290    0.8730   23.9040 C.ar    1  UNL1        0.0375
      5 C          11.8760   -0.8990   22.1420 C.ar    1  UNL1        0.0129
      6 C          11.1030   -0.1610   23.0360 C.ar    1  UNL1        0.0453
      7 C          11.7500    0.7190   23.9110 C.ar    1  UNL1        0.1372
      8 O          11.0690    1.4950   24.8140 O.3     1  UNL1       -0.4756
      9 C           9.8640    0.8800   25.3030 C.3     1  UNL1        0.2087
     10 C           8.9090    0.5180   24.1810 C.3     1  UNL1        0.0879
     11 C           9.5930   -0.2920   23.0600 C.3     1  UNL1        0.1877
     12 O           9.2060   -1.6650   22.9380 O.3     1  UNL1       -0.3428
     13 C           9.3880   -2.4980   24.0860 C.3     1  UNL1        0.1750
     14 C           8.9650    0.3180   21.7690 C.2     1  UNL1        0.2742
     15 O           9.4650    1.3000   21.2330 O.2     1  UNL1       -0.2701
     16 N           7.8300   -0.2790   21.3230 N.am    1  UNL1       -0.1754
     17 C           7.0780    0.1150   20.1910 C.ar    1  UNL1        0.0925
     18 C           7.5030   -0.0800   18.8760 C.ar    1  UNL1        0.1154
     19 N           6.8820    0.3970   17.7870 N.ar    1  UNL1       -0.2410
     20 C           5.7710    1.0990   17.9710 C.ar    1  UNL1        0.0990
     21 C           5.1990    1.3690   19.2390 C.ar    1  UNL1        0.0218
     22 C           5.8680    0.8570   20.3890 C.ar    1  UNL1        0.0185
     23 C           5.2860    1.0960   21.6640 C.ar    1  UNL1        0.0028
     24 C           4.1120    1.7820   21.7900 C.ar    1  UNL1        0.0200
     25 C           3.9950    2.0880   19.4030 C.ar    1  UNL1        0.0215
     26 C           3.4680    2.2610   20.6560 C.ar    1  UNL1        0.1236
     27 S           1.8870    3.0280   20.8060 S.O2    1  UNL1        0.0769
     28 O           1.5170    3.5450   19.5220 O.2     1  UNL1       -0.1516
     29 O           1.0130    2.1100   21.4680 O.2     1  UNL1       -0.1516
     30 N           2.0530    4.2980   21.7790 N.3     1  UNL1       -0.0762
     31 C           2.8110    5.4570   21.3170 C.3     1  UNL1        0.1362
@<TRIPOS>BOND
     1     2     1    1
     2     3     2   ar
     3     4     3   ar
     4     5     2   ar
     5     6     5   ar
     6     7     6   ar
     7     7     4   ar
     8     8     7    1
     9     9     8    1
    10    10     9    1
    11    11    10    1
    12    11     6    1
    13    11    12    1
    14    13    12    1
    15    14    11    1
    16    15    14    2
    17    16    14   am
    18    17    16    1
    19    18    17   ar
    20    19    18   ar
    21    20    19   ar
    22    21    20   ar
    23    22    21   ar
    24    22    17   ar
    25    23    22   ar
    26    24    23   ar
    27    25    21   ar
    28    26    25   ar
    29    26    24   ar
    30    27    26    1
    31    28    27    2
    32    29    27    2
    33    27    30    1
    34    31    30    1
