@<TRIPOS>MOLECULE
*****
 25 26 0 0 0
SMALL
GASTEIGER

@<TRIPOS>ATOM
      1 N           6.2150    1.3890   24.6080 N.1     1  UNL1       -0.1959
      2 C           6.1140    0.7740   25.5580 C.1     1  UNL1        0.0728
      3 C           6.0450   -0.0430   26.7750 C.3     1  UNL1        0.0993
      4 C           4.7500   -0.8600   26.7250 C.3     1  UNL1        0.0169
      5 C           6.0450    0.8990   27.9840 C.3     1  UNL1        0.0169
      6 C           7.2900   -0.9490   26.8180 C.3     1  UNL1        0.1261
      7 N           8.5550   -0.2530   26.6940 N.pl3   1  UNL1       -0.2365
      8 C           9.3520   -0.2150   25.5610 C.ar    1  UNL1        0.0659
      9 C          10.5710    0.4550   25.5820 C.ar    1  UNL1        0.0275
     10 C          11.3660    0.4240   24.4520 C.ar    1  UNL1        0.0587
     11 CL         12.9000    1.2480   24.4770 Cl      1  UNL1       -0.0822
     12 C          10.9730   -0.2270   23.3000 C.ar    1  UNL1        0.0077
     13 C           8.9390   -0.8590   24.3980 C.ar    1  UNL1        0.0124
     14 C           9.7360   -0.8600   23.2610 C.ar    1  UNL1       -0.0109
     15 C           9.2300   -1.4810   21.9800 C.3     1  UNL1        0.1135
     16 C           8.4700   -0.4560   21.1630 C.2     1  UNL1        0.2500
     17 O           8.9570    0.6330   20.8730 O.2     1  UNL1       -0.2726
     18 N           7.2420   -0.8440   20.7600 N.am    1  UNL1       -0.1777
     19 C           6.5570   -0.1110   19.7660 C.ar    1  UNL1        0.0885
     20 C           5.5170    0.7560   20.1190 C.ar    1  UNL1       -0.0034
     21 C           5.1290    0.9920   21.5550 C.3     1  UNL1        0.0325
     22 C           6.9670   -0.1680   18.4360 C.ar    1  UNL1        0.1151
     23 N           6.4270    0.5850   17.4700 N.ar    1  UNL1       -0.2410
     24 C           5.3960    1.3690   17.8070 C.ar    1  UNL1        0.0987
     25 C           4.9120    1.4780   19.0960 C.ar    1  UNL1        0.0177
@<TRIPOS>BOND
     1     2     1    3
     2     3     2    1
     3     3     4    1
     4     5     3    1
     5     6     3    1
     6     7     6    1
     7     8     7    1
     8     9     8   ar
     9    10     9   ar
    10    11    10    1
    11    12    10   ar
    12    13     8   ar
    13    14    13   ar
    14    14    12   ar
    15    15    14    1
    16    16    15    1
    17    17    16    2
    18    18    16   am
    19    19    18    1
    20    20    19   ar
    21    21    20    1
    22    22    19   ar
    23    23    22   ar
    24    24    23   ar
    25    25    24   ar
    26    25    20   ar
