@<TRIPOS>MOLECULE
*****
 21 23 0 0 0
SMALL
GASTEIGER

@<TRIPOS>ATOM
      1 O          22.0140    4.7310   26.0610 O.2     1  UNL1       -0.2716
      2 C          22.8470    4.6000   25.1650 C.2     1  UNL1        0.2620
      3 N          22.7780    5.2540   24.0180 N.am    1  UNL1       -0.0878
      4 C          24.0110    3.6450   25.3180 C.3     1  UNL1        0.1011
      5 C          24.4020    3.3830   26.7970 C.3     1  UNL1        0.0484
      6 C          25.2780    4.4380   27.4330 C.ar    1  UNL1       -0.0206
      7 C          26.0150    5.3170   26.6500 C.ar    1  UNL1       -0.0042
      8 C          26.7440    6.3380   27.2310 C.ar    1  UNL1       -0.0003
      9 C          26.7560    6.4870   28.5990 C.ar    1  UNL1       -0.0000
     10 C          26.0440    5.6110   29.3890 C.ar    1  UNL1       -0.0003
     11 C          25.3140    4.5880   28.8100 C.ar    1  UNL1       -0.0042
     12 C          25.0630    2.0130   26.6660 C.3     1  UNL1        0.0772
     13 N          24.0630    1.2920   25.8710 N.3     1  UNL1       -0.2681
     14 C          23.6510    2.2430   24.8310 C.3     1  UNL1        0.0819
     15 C          24.5070    0.0030   25.3340 C.3     1  UNL1        0.1007
     16 C          23.3070   -0.8130   24.9270 C.ar    1  UNL1        0.0130
     17 C          22.3620   -1.2000   25.8620 C.ar    1  UNL1        0.0959
     18 N          21.1960   -1.7770   25.5630 N.ar    1  UNL1       -0.2426
     19 C          20.9390   -1.9890   24.2710 C.ar    1  UNL1        0.0989
     20 C          21.8200   -1.6620   23.2630 C.ar    1  UNL1        0.0204
     21 C          23.0200   -1.0720   23.6010 C.ar    1  UNL1        0.0002
@<TRIPOS>BOND
     1     2     1    2
     2     3     2   am
     3     4     2    1
     4     5     4    1
     5     5     6    1
     6     7     6   ar
     7     8     7   ar
     8     9     8   ar
     9    10     9   ar
    10    11     6   ar
    11    11    10   ar
    12    12     5    1
    13    13    12    1
    14    14    13    1
    15    14     4    1
    16    15    13    1
    17    16    15    1
    18    17    16   ar
    19    18    17   ar
    20    19    18   ar
    21    20    19   ar
    22    21    20   ar
    23    21    16   ar
