@<TRIPOS>MOLECULE
*****
 29 31 0 0 0
SMALL
GASTEIGER

@<TRIPOS>ATOM
      1 O           8.0010    2.3540   33.5100 O.2     1  UNL1       -0.2670
      2 C           8.2100    1.9240   32.3850 C.ar    1  UNL1        0.2610
      3 N           9.2530    0.9870   32.1690 N.ar    1  UNL1       -0.2910
      4 C          10.0070    0.5440   33.3400 C.3     1  UNL1        0.1336
      5 C           9.5180    0.4480   30.9470 C.ar    1  UNL1        0.0951
      6 C           7.4060    2.2790   31.2030 C.ar    1  UNL1        0.0575
      7 C           7.6530    1.6770   29.9540 C.ar    1  UNL1        0.0215
      8 C           6.8540    2.0100   28.8580 C.ar    1  UNL1        0.0015
      9 C           5.8360    2.9360   29.0000 C.ar    1  UNL1        0.0000
     10 C           5.6080    3.5440   30.2200 C.ar    1  UNL1        0.0002
     11 C           6.3820    3.2200   31.3220 C.ar    1  UNL1        0.0048
     12 C           8.7630    0.7150   29.8600 C.ar    1  UNL1        0.0923
     13 N           9.0500    0.0670   28.6700 N.am    1  UNL1       -0.1607
     14 C           8.2950   -1.0130   28.2060 C.2     1  UNL1        0.3278
     15 O           7.4650   -1.5640   28.9180 O.2     1  UNL1       -0.2504
     16 N           8.5760   -1.4650   26.9500 N.am    1  UNL1       -0.2552
     17 C           7.8130   -2.5560   26.3730 C.3     1  UNL1        0.1595
     18 C           8.5670   -3.8370   26.4230 C.ar    1  UNL1        0.1431
     19 O           8.4860   -4.5500   27.5800 O.2     1  UNL1       -0.4530
     20 C           9.2580   -5.6710   27.3950 C.ar    1  UNL1        0.1792
     21 C           9.8030   -5.6660   26.1840 C.ar    1  UNL1        0.0435
     22 C           9.3570   -4.4750   25.5470 C.ar    1  UNL1        0.0379
     23 C           9.6610   -0.9120   26.1300 C.3     1  UNL1        0.0980
     24 C           9.1890    0.0250   25.0270 C.3     1  UNL1        0.0536
     25 C          10.3420    0.5620   24.2140 C.3     1  UNL1        0.1438
     26 O          11.0730   -0.5370   23.6670 O.3     1  UNL1       -0.3562
     27 C          12.1690   -0.2530   22.8050 C.3     1  UNL1        0.1154
     28 C          13.3130    0.4120   23.5000 C.3     1  UNL1        0.0320
     29 C          12.5800   -1.5150   22.1010 C.3     1  UNL1        0.0320
@<TRIPOS>BOND
     1     2     1    2
     2     3     2   ar
     3     4     3    1
     4     5     3   ar
     5     6     2   ar
     6     7     6   ar
     7     8     7   ar
     8     9     8   ar
     9    10     9   ar
    10    11    10   ar
    11    11     6   ar
    12    12     7   ar
    13    12     5   ar
    14    13    12    1
    15    14    13   am
    16    15    14    2
    17    16    14   am
    18    17    16    1
    19    18    17    1
    20    19    18   ar
    21    20    19   ar
    22    21    20   ar
    23    22    21   ar
    24    22    18   ar
    25    23    16    1
    26    24    23    1
    27    25    24    1
    28    26    25    1
    29    27    26    1
    30    27    28    1
    31    29    27    1
