@<TRIPOS>MOLECULE
*****
 20 22 0 0 0
SMALL
GASTEIGER

@<TRIPOS>ATOM
      1 O           8.9130    1.0220   20.8580 O.2     1  UNL1       -0.2726
      2 C           8.7230   -0.1720   21.0880 C.2     1  UNL1        0.2500
      3 N           9.3420   -0.8510   22.0730 N.am    1  UNL1       -0.1789
      4 C          10.1420   -0.2790   23.0800 C.ar    1  UNL1        0.0734
      5 C           9.5450    0.1580   24.2580 C.ar    1  UNL1        0.0166
      6 C          10.2740    0.9100   25.1620 C.ar    1  UNL1        0.0013
      7 C          11.5950    1.2150   24.9080 C.ar    1  UNL1        0.0001
      8 C          12.1990    0.7610   23.7540 C.ar    1  UNL1        0.0013
      9 C          11.4820    0.0090   22.8390 C.ar    1  UNL1        0.0166
     10 C           7.7120   -0.9900   20.3120 C.3     1  UNL1        0.1150
     11 C           6.7860   -0.1630   19.4520 C.ar    1  UNL1        0.0062
     12 C           5.6660    0.5280   20.0100 C.ar    1  UNL1       -0.0005
     13 C           5.3360    0.4910   21.3910 C.ar    1  UNL1       -0.0002
     14 C           4.2660    1.1900   21.8760 C.ar    1  UNL1       -0.0000
     15 C           3.4720    1.9490   21.0290 C.ar    1  UNL1        0.0000
     16 C           3.7510    2.0230   19.6970 C.ar    1  UNL1        0.0015
     17 C           4.8490    1.3140   19.1500 C.ar    1  UNL1        0.0189
     18 C           5.1920    1.3510   17.7820 C.ar    1  UNL1        0.0988
     19 N           6.2250    0.7060   17.2620 N.ar    1  UNL1       -0.2426
     20 C           6.9840   -0.0190   18.0930 C.ar    1  UNL1        0.0951
@<TRIPOS>BOND
     1     2     1    2
     2     3     2   am
     3     4     3    1
     4     5     4   ar
     5     6     5   ar
     6     7     6   ar
     7     8     7   ar
     8     9     4   ar
     9     9     8   ar
    10    10     2    1
    11    11    10    1
    12    12    11   ar
    13    13    12   ar
    14    14    13   ar
    15    15    14   ar
    16    16    15   ar
    17    17    16   ar
    18    17    12   ar
    19    18    17   ar
    20    19    18   ar
    21    20    19   ar
    22    20    11   ar
