@<TRIPOS>MOLECULE
*****
 12 12 0 0 0
SMALL
GASTEIGER

@<TRIPOS>ATOM
      1 O           6.2620   -3.8630   19.8610 O.2     1  UNL1       -0.2749
      2 C           7.1230   -3.4170   20.6050 C.2     1  UNL1        0.2262
      3 C           8.5320   -3.1550   20.1110 C.3     1  UNL1        0.0948
      4 N           6.8820   -3.1240   21.8990 N.am    1  UNL1       -0.2767
      5 C           5.8870   -3.8350   22.7120 C.3     1  UNL1        0.1108
      6 C           6.5430   -4.3870   23.9750 C.3     1  UNL1        0.0947
      7 N           7.2020   -3.3050   24.7320 N.3     1  UNL1       -0.2586
      8 C           8.2340   -2.6710   23.8920 C.3     1  UNL1        0.0947
      9 C           7.6070   -2.0810   22.6360 C.3     1  UNL1        0.1108
     10 C           7.7530   -3.7860   25.9960 C.3     1  UNL1        0.1509
     11 C           8.7800   -4.8250   25.8600 C.1     1  UNL1       -0.0599
     12 C           9.5990   -5.6560   25.7040 C.1     1  UNL1       -0.0127
@<TRIPOS>BOND
     1     2     1    2
     2     3     2    1
     3     4     2   am
     4     5     4    1
     5     6     5    1
     6     7     6    1
     7     8     7    1
     8     9     8    1
     9     9     4    1
    10    10     7    1
    11    11    10    1
    12    12    11    3
