@<TRIPOS>MOLECULE
*****
 22 24 0 0 0
SMALL
GASTEIGER

@<TRIPOS>ATOM
      1 O           9.2260    1.0170   21.0990 O.2     1  UNL1       -0.2726
      2 C           8.7410   -0.0590   21.4400 C.2     1  UNL1        0.2500
      3 C           9.3260   -0.8670   22.5830 C.3     1  UNL1        0.1136
      4 C          10.7730   -0.5070   22.8220 C.ar    1  UNL1       -0.0086
      5 C          11.7780   -1.0890   22.0550 C.ar    1  UNL1        0.0260
      6 C          13.0800   -0.7030   22.2660 C.ar    1  UNL1        0.1421
      7 F          14.0450   -1.2230   21.4620 F       1  UNL1       -0.2041
      8 C          13.4560    0.2140   23.2180 C.ar    1  UNL1        0.0592
      9 C          11.1140    0.4250   23.7950 C.ar    1  UNL1        0.0260
     10 C          12.4380    0.7500   23.9660 C.ar    1  UNL1        0.1421
     11 F          12.7560    1.6650   24.9210 F       1  UNL1       -0.2041
     12 N           7.6540   -0.6110   20.8590 N.am    1  UNL1       -0.1773
     13 C           6.8460   -0.0680   19.8370 C.ar    1  UNL1        0.0925
     14 C           5.6950    0.6910   20.2160 C.ar    1  UNL1        0.0184
     15 C           5.2600    0.8510   21.5590 C.ar    1  UNL1        0.0014
     16 C           4.1700    1.6170   21.8570 C.ar    1  UNL1        0.0000
     17 C           3.4650    2.2650   20.8530 C.ar    1  UNL1        0.0001
     18 C           3.8340    2.1340   19.5440 C.ar    1  UNL1        0.0016
     19 C           4.9530    1.3400   19.1880 C.ar    1  UNL1        0.0204
     20 C           5.3950    1.1760   17.8520 C.ar    1  UNL1        0.0989
     21 N           6.4610    0.4720   17.5020 N.ar    1  UNL1       -0.2410
     22 C           7.1520   -0.1330   18.4780 C.ar    1  UNL1        0.1154
@<TRIPOS>BOND
     1     2     1    2
     2     3     2    1
     3     4     3    1
     4     5     4   ar
     5     6     5   ar
     6     7     6    1
     7     8     6   ar
     8     9     4   ar
     9    10     9   ar
    10    10     8   ar
    11    11    10    1
    12    12     2   am
    13    13    12    1
    14    14    13   ar
    15    15    14   ar
    16    16    15   ar
    17    17    16   ar
    18    18    17   ar
    19    19    18   ar
    20    19    14   ar
    21    20    19   ar
    22    21    20   ar
    23    22    21   ar
    24    22    13   ar
