@<TRIPOS>MOLECULE
*****
 25 28 0 0 0
SMALL
GASTEIGER

@<TRIPOS>ATOM
      1 CL         13.8110   -1.6850   21.3740 Cl      1  UNL1       -0.0814
      2 C          12.5290   -0.9880   22.3110 C.ar    1  UNL1        0.0681
      3 C          12.7930   -0.0640   23.3130 C.ar    1  UNL1        0.0712
      4 CL         14.4240    0.3860   23.7150 Cl      1  UNL1       -0.0813
      5 C          11.2260   -1.3420   22.0210 C.ar    1  UNL1        0.0114
      6 C          10.1630   -0.7800   22.7200 C.ar    1  UNL1        0.0212
      7 C          10.4550    0.1350   23.7390 C.ar    1  UNL1        0.1359
      8 C          11.7560    0.5040   24.0280 C.ar    1  UNL1        0.0488
      9 C           8.7280   -1.1510   22.4060 C.3     1  UNL1        0.1074
     10 C           7.8790   -0.9670   23.6740 C.3     1  UNL1        0.0610
     11 C           8.1090    0.4090   24.2490 C.3     1  UNL1        0.2062
     12 O           9.4990    0.6640   24.5770 O.3     1  UNL1       -0.4757
     13 C           8.2110   -0.2790   21.2590 C.2     1  UNL1        0.2495
     14 O           8.7160    0.8100   20.9770 O.2     1  UNL1       -0.2726
     15 N           7.1470   -0.7870   20.6060 N.am    1  UNL1       -0.1774
     16 C           6.4060   -0.1810   19.5740 C.ar    1  UNL1        0.0925
     17 C           5.3090    0.6730   19.9180 C.ar    1  UNL1        0.0184
     18 C           4.8380    0.8610   21.2440 C.ar    1  UNL1        0.0014
     19 C           3.8100    1.7240   21.5100 C.ar    1  UNL1        0.0000
     20 C           3.1980    2.4340   20.4840 C.ar    1  UNL1        0.0001
     21 C           3.6160    2.2850   19.1910 C.ar    1  UNL1        0.0016
     22 C           4.6800    1.4030   18.8730 C.ar    1  UNL1        0.0204
     23 C           5.1760    1.2280   17.5600 C.ar    1  UNL1        0.0989
     24 N           6.1880    0.4350   17.2420 N.ar    1  UNL1       -0.2410
     25 C           6.7740   -0.2490   18.2320 C.ar    1  UNL1        0.1154
@<TRIPOS>BOND
     1     2     1    1
     2     3     2   ar
     3     4     3    1
     4     5     2   ar
     5     6     5   ar
     6     7     6   ar
     7     8     7   ar
     8     8     3   ar
     9     9     6    1
    10    10     9    1
    11    11    10    1
    12    12    11    1
    13    12     7    1
    14     9    13    1
    15    14    13    2
    16    15    13   am
    17    16    15    1
    18    17    16   ar
    19    18    17   ar
    20    19    18   ar
    21    20    19   ar
    22    21    20   ar
    23    22    21   ar
    24    22    17   ar
    25    23    22   ar
    26    24    23   ar
    27    25    24   ar
    28    25    16   ar
