@<TRIPOS>MOLECULE
*****
 25 27 0 0 0
SMALL
GASTEIGER

@<TRIPOS>ATOM
      1 N           9.2340   -0.7460   22.4970 N.am    1  UNL1       -0.2416
      2 N           6.5650    0.6350   17.6500 N.ar    1  UNL1       -0.2410
      3 C           7.6130   -5.4310   27.0190 C.3     1  UNL1        0.0000
      4 C          13.2830    0.1320   23.1300 C.ar    1  UNL1        0.0115
      5 C           5.4410    1.3210   17.8970 C.ar    1  UNL1        0.0990
      6 C           8.7240   -3.5090   25.0200 C.3     1  UNL1        0.0017
      7 C          12.3110    0.6870   23.9490 C.ar    1  UNL1        0.0021
      8 C           5.4730    0.7590   20.2090 C.ar    1  UNL1        0.0198
      9 C           8.4130   -1.5160   23.4470 C.3     1  UNL1        0.0998
     10 C          11.5870   -1.1760   22.0210 C.ar    1  UNL1        0.0263
     11 C          10.6120   -0.5730   22.8140 C.ar    1  UNL1        0.0562
     12 C           9.0510   -5.5420   26.5240 C.3     1  UNL1        0.0000
     13 C           7.2800   -3.4180   25.5310 C.3     1  UNL1        0.0001
     14 C           4.8590    1.4070   19.1530 C.ar    1  UNL1        0.0220
     15 C           9.2070   -4.9600   25.1160 C.3     1  UNL1        0.0001
     16 C           7.1200   -3.9900   26.9410 C.3     1  UNL1        0.0000
     17 C           7.1420    0.0080   18.6780 C.ar    1  UNL1        0.1154
     18 C           8.6270   -0.0820   21.4040 C.2     1  UNL1        0.3313
     19 C          12.9050   -0.8010   22.1900 C.ar    1  UNL1        0.0589
     20 N           7.3940   -0.5170   21.0410 N.am    1  UNL1       -0.1604
     21 O           9.2060    0.8460   20.8520 O.2     1  UNL1       -0.2501
     22 C           8.8710   -2.9600   23.5900 C.3     1  UNL1        0.0219
     23 C          10.9780    0.3340   23.8010 C.ar    1  UNL1        0.0150
     24 C           6.6470    0.0510   19.9840 C.ar    1  UNL1        0.0941
     25 CL         14.1200   -1.5130   21.1630 Cl      1  UNL1       -0.0822
@<TRIPOS>BOND
     1     5     2   ar
     2     7     4   ar
     3     9     1    1
     4    11     1    1
     5    11    10   ar
     6    12     3    1
     7    13     6    1
     8    14     5   ar
     9    14     8   ar
    10    15    12    1
    11    15     6    1
    12    16    13    1
    13    16     3    1
    14    17     2   ar
    15    18     1   am
    16    19    10   ar
    17    19     4   ar
    18    20    18   am
    19    21    18    2
    20    22     9    1
    21     6    22    1
    22    23    11   ar
    23    23     7   ar
    24    24    20    1
    25    24    17   ar
    26    24     8   ar
    27    25    19    1
