@<TRIPOS>MOLECULE
*****
 13 13 0 0 0
SMALL
GASTEIGER

@<TRIPOS>ATOM
      1 N          -2.9700    5.8340   -1.2510 N.3     1  UNL1       -0.1750
      2 C          -2.0960    4.8030   -0.8560 C.3     1  UNL1        0.3037
      3 C          -1.5460    2.6010    0.1490 C.3     1  UNL1        0.0767
      4 C          -1.7090    1.8690    1.2300 C.3     1  UNL1        0.0175
      5 C          -0.7690    1.0150    1.6590 C.3     1  UNL1        0.0014
      6 C           0.3830    0.9380    0.9590 C.3     1  UNL1        0.0001
      7 C          -0.4050    2.5080   -0.4700 C.3     1  UNL1        0.0175
      8 C          -1.4960    7.6820   -0.9050 C.3     1  UNL1        0.0189
      9 C          -2.4910    7.0310   -1.8340 C.3     1  UNL1        0.0768
     10 C          -1.8570    6.5560   -3.1000 C.3     1  UNL1        0.0189
     11 C           0.5790    1.6930   -0.1130 C.3     1  UNL1        0.0014
     12 N          -2.5330    3.5300   -0.2590 N.3     1  UNL1       -0.1750
     13 O          -0.9500    5.0680   -1.0420 O.3     1  UNL1       -0.1830
@<TRIPOS>BOND
     1     2     1    1
     2     4     3    1
     3     5     4    1
     4     6     5    1
     5     7     3    1
     6     9     8    1
     7     9     1    1
     8    10     9    1
     9    11     7    1
    10    11     6    1
    11     3    12    1
    12    12     2    1
    13    13     2    1
