@<TRIPOS>MOLECULE
*****
 14 14 0 0 0
SMALL
GASTEIGER

@<TRIPOS>ATOM
      1 CL         14.0310   -1.7620   21.3590 Cl      1  UNL1       -0.0823
      2 C          12.7060   -1.0860   22.2660 C.ar    1  UNL1        0.0574
      3 C          12.9190    0.0350   23.0380 C.ar    1  UNL1        0.0114
      4 C          11.8800    0.5050   23.8280 C.ar    1  UNL1        0.0006
      5 C          10.6470   -0.1290   23.8120 C.ar    1  UNL1       -0.0025
      6 C          11.4800   -1.7190   22.2260 C.ar    1  UNL1        0.0089
      7 C          10.4270   -1.2300   22.9930 C.ar    1  UNL1        0.0008
      8 CA          9.0530   -1.8650   22.8940 C.3     1  UNL1        0.1504
      9 C           8.8630   -2.8890   24.0070 C.3     1  UNL1        0.2080
     10 O           7.5940   -3.5270   23.9220 O.3     1  UNL1       -0.2181
     11 N           8.8280   -2.5240   21.6100 N.am    1  UNL1       -0.2000
     12 C           8.3240   -1.8930   20.5440 C.2     1  UNL1        0.2422
     13 O           8.0920   -0.6870   20.5370 O.2     1  UNL1       -0.2733
     14 C           8.0880   -2.7150   19.2890 C.3     1  UNL1        0.0964
@<TRIPOS>BOND
     1     2     1    1
     2     3     2   ar
     3     4     3   ar
     4     5     4   ar
     5     6     2   ar
     6     7     5   ar
     7     7     6   ar
     8     8     7    1
     9     8     9    1
    10    10     9    1
    11    11     8    1
    12    12    11   am
    13    13    12    2
    14    14    12    1
