@<TRIPOS>MOLECULE
*****
 21 22 0 0 0
SMALL
GASTEIGER

@<TRIPOS>ATOM
      1 CL         14.0090   -1.8010   21.4860 Cl      1  UNL1       -0.0823
      2 C          12.9100   -0.6930   22.2530 C.ar    1  UNL1        0.0574
      3 C          13.3970    0.4930   22.7660 C.ar    1  UNL1        0.0114
      4 C          12.5040    1.3820   23.3440 C.ar    1  UNL1        0.0006
      5 C          11.1560    1.0740   23.4130 C.ar    1  UNL1       -0.0014
      6 C          11.5680   -1.0170   22.3110 C.ar    1  UNL1        0.0099
      7 C          10.6720   -0.1260   22.8950 C.ar    1  UNL1        0.0143
      8 C           9.1720   -0.4280   22.9080 C.3     1  UNL1        0.2148
      9 O           8.9810   -1.8400   22.8820 O.3     1  UNL1       -0.2117
     10 C           8.4960    0.1400   24.1760 C.3     1  UNL1        0.0438
     11 C           7.0650   -0.3310   24.3940 C.3     1  UNL1        0.0035
     12 C           8.5500    0.2320   21.6330 C.2     1  UNL1        0.2771
     13 O           8.9880    1.2980   21.2320 O.2     1  UNL1       -0.2700
     14 N           7.5070   -0.4020   21.0520 N.am    1  UNL1       -0.1756
     15 C           6.7550    0.1140   19.9680 C.ar    1  UNL1        0.0886
     16 C           5.6210    0.9110   20.2250 C.ar    1  UNL1       -0.0034
     17 C           5.1130    1.1520   21.6230 C.3     1  UNL1        0.0325
     18 C           4.9880    1.4940   19.1320 C.ar    1  UNL1        0.0177
     19 C           5.4850    1.2840   17.8630 C.ar    1  UNL1        0.0987
     20 N           6.5490    0.5150   17.6040 N.ar    1  UNL1       -0.2410
     21 C           7.1570   -0.0620   18.6450 C.ar    1  UNL1        0.1151
@<TRIPOS>BOND
     1     2     1    1
     2     3     2   ar
     3     4     3   ar
     4     5     4   ar
     5     6     2   ar
     6     7     6   ar
     7     7     5   ar
     8     8     7    1
     9     8     9    1
    10    10     8    1
    11    11    10    1
    12    12     8    1
    13    13    12    2
    14    14    12   am
    15    15    14    1
    16    16    15   ar
    17    17    16    1
    18    18    16   ar
    19    19    18   ar
    20    20    19   ar
    21    21    20   ar
    22    21    15   ar
