@<TRIPOS>MOLECULE
*****
 16 16 0 0 0
SMALL
GASTEIGER

@<TRIPOS>ATOM
      1 C           6.9050   -4.0320   20.0170 C.3     1  UNL1        0.0948
      2 C           7.5510   -2.7710   19.4700 C.2     1  UNL1        0.2261
      3 O           7.8920   -2.6820   18.3030 O.2     1  UNL1       -0.2749
      4 N           7.7050   -1.7160   20.3030 N.am    1  UNL1       -0.2789
      5 C           7.4060   -0.3920   19.7570 C.3     1  UNL1        0.1031
      6 C           5.9570   -0.2360   19.3390 C.3     1  UNL1        0.1100
      7 C           5.8010    0.8360   18.2920 C.2     1  UNL1        0.2625
      8 O           6.5940    0.9270   17.3500 O.2     1  UNL1       -0.2716
      9 N           4.8100    1.6940   18.4860 N.am    1  UNL1       -0.0877
     10 C           8.2760   -1.8070   21.6590 C.3     1  UNL1        0.1006
     11 C           8.0820   -0.6080   22.6010 C.3     1  UNL1        0.1705
     12 S           9.7110    0.1270   22.6260 S.O2    1  UNL1       -0.0083
     13 O           9.9020    0.9590   21.4690 O.2     1  UNL1       -0.1729
     14 O           9.9700    0.7070   23.9180 O.2     1  UNL1       -0.1729
     15 C          10.5350   -1.2950   22.4800 C.3     1  UNL1        0.1527
     16 C           9.7640   -2.0860   21.4310 C.3     1  UNL1        0.0469
@<TRIPOS>BOND
     1     2     1    1
     2     3     2    2
     3     4     2   am
     4     5     4    1
     5     6     5    1
     6     7     6    1
     7     8     7    2
     8     9     7   am
     9    10     4    1
    10    11    10    1
    11    12    11    1
    12    13    12    2
    13    14    12    2
    14    15    12    1
    15    16    10    1
    16    16    15    1
