@<TRIPOS>MOLECULE
*****
 17 19 0 0 0
SMALL
GASTEIGER

@<TRIPOS>ATOM
      1 O           9.7860    0.8840   21.2280 O.2     1  UNL1       -0.2730
      2 C           9.2860   -0.1730   21.6040 C.2     1  UNL1        0.2456
      3 N           8.1150   -0.6580   21.1550 N.am    1  UNL1       -0.1780
      4 C           7.2900   -0.1010   20.1520 C.ar    1  UNL1        0.0885
      5 C           7.6750   -0.0780   18.8100 C.ar    1  UNL1        0.1151
      6 N           6.9130    0.4310   17.8360 N.ar    1  UNL1       -0.2410
      7 C           5.7220    0.9300   18.1860 C.ar    1  UNL1        0.0987
      8 C           5.2500    0.9490   19.4830 C.ar    1  UNL1        0.0177
      9 C           6.0370    0.4380   20.5060 C.ar    1  UNL1       -0.0034
     10 C           5.5780    0.5130   21.9420 C.3     1  UNL1        0.0325
     11 C           9.9650   -1.0740   22.6100 C.3     1  UNL1        0.0872
     12 C          11.4560   -0.7580   22.8870 C.3     1  UNL1        0.0087
     13 C          11.8490    0.3600   23.8580 C.3     1  UNL1        0.0005
     14 C          12.6640   -0.3690   24.9140 C.3     1  UNL1        0.0000
     15 C          13.4410   -1.4250   24.1540 C.3     1  UNL1        0.0000
     16 C          12.4800   -1.8470   23.0430 C.3     1  UNL1        0.0005
     17 C          12.4460   -1.0040   21.7960 C.3     1  UNL1        0.0005
@<TRIPOS>BOND
     1     2     1    2
     2     3     2   am
     3     4     3    1
     4     5     4   ar
     5     6     5   ar
     6     7     6   ar
     7     8     7   ar
     8     9     8   ar
     9     9     4   ar
    10    10     9    1
    11    11     2    1
    12    12    11    1
    13    13    12    1
    14    14    13    1
    15    15    14    1
    16    16    15    1
    17    16    12    1
    18    17    16    1
    19    17    12    1
