@<TRIPOS>MOLECULE
*****
 25 28 0 0 0
SMALL
GASTEIGER

@<TRIPOS>ATOM
      1 O           9.1590    1.0860   21.0460 O.2     1  UNL1       -0.2726
      2 C           8.6430    0.0230   21.4070 C.2     1  UNL1        0.2498
      3 C           9.2510   -0.8470   22.5070 C.3     1  UNL1        0.1111
      4 C           8.5110   -0.5320   23.8150 C.3     1  UNL1        0.1007
      5 C           8.8620    0.8000   24.4140 C.2     1  UNL1        0.2464
      6 O           8.0310    1.4920   24.9910 O.2     1  UNL1       -0.2730
      7 N          10.1440    1.1980   24.2840 N.am    1  UNL1       -0.1795
      8 C          10.7210   -0.5570   22.7210 C.ar    1  UNL1        0.0029
      9 C          11.1080    0.5220   23.5320 C.ar    1  UNL1        0.0699
     10 C          12.4550    0.8700   23.6390 C.ar    1  UNL1        0.0172
     11 C          13.4130    0.1530   22.9410 C.ar    1  UNL1        0.0127
     12 C          11.6980   -1.2760   22.0400 C.ar    1  UNL1        0.0089
     13 C          13.0200   -0.9010   22.1440 C.ar    1  UNL1        0.0575
     14 CL         14.2060   -1.7270   21.1750 Cl      1  UNL1       -0.0823
     15 N           7.5090   -0.4710   20.8690 N.am    1  UNL1       -0.1774
     16 C           6.7720    0.0790   19.8120 C.ar    1  UNL1        0.0925
     17 C           5.6860    0.9490   20.1200 C.ar    1  UNL1        0.0184
     18 C           5.2330    1.2100   21.4400 C.ar    1  UNL1        0.0014
     19 C           4.1540    2.0190   21.6650 C.ar    1  UNL1        0.0000
     20 C           3.4750    2.6050   20.6050 C.ar    1  UNL1        0.0001
     21 C           3.8840    2.3970   19.3170 C.ar    1  UNL1        0.0016
     22 C           4.9990    1.5680   19.0400 C.ar    1  UNL1        0.0204
     23 C           5.4480    1.2850   17.7270 C.ar    1  UNL1        0.0989
     24 N           6.4570    0.4730   17.4420 N.ar    1  UNL1       -0.2410
     25 C           7.0920   -0.1110   18.4690 C.ar    1  UNL1        0.1154
@<TRIPOS>BOND
     1     2     1    2
     2     3     2    1
     3     4     3    1
     4     5     4    1
     5     6     5    2
     6     7     5   am
     7     8     3    1
     8     9     8   ar
     9     9     7    1
    10    10     9   ar
    11    11    10   ar
    12    12     8   ar
    13    13    12   ar
    14    13    11   ar
    15    14    13    1
    16    15     2   am
    17    16    15    1
    18    17    16   ar
    19    18    17   ar
    20    19    18   ar
    21    20    19   ar
    22    21    20   ar
    23    22    21   ar
    24    22    17   ar
    25    23    22   ar
    26    24    23   ar
    27    25    24   ar
    28    25    16   ar
