@<TRIPOS>MOLECULE
*****
 26 29 0 0 0
SMALL
GASTEIGER

@<TRIPOS>ATOM
      1 O           9.1640    1.4810   21.1050 O.2     1  UNL1       -0.2701
      2 C           8.9130    0.3190   21.4000 C.2     1  UNL1        0.2742
      3 C           9.4850   -0.3660   22.6750 C.3     1  UNL1        0.1877
      4 C          10.9870   -0.1990   22.7390 C.ar    1  UNL1        0.0453
      5 C          11.8160   -0.7790   21.7830 C.ar    1  UNL1        0.0129
      6 C          13.1840   -0.6200   21.8880 C.ar    1  UNL1        0.0576
      7 CL         14.2200   -1.5310   20.8260 Cl      1  UNL1       -0.0823
      8 C          13.7520    0.1650   22.8670 C.ar    1  UNL1        0.0145
      9 C          12.9380    0.7690   23.8070 C.ar    1  UNL1        0.0375
     10 C          11.5710    0.5640   23.7520 C.ar    1  UNL1        0.1372
     11 O          10.8430    1.1300   24.7690 O.3     1  UNL1       -0.4756
     12 C           9.4880    1.4500   24.4190 C.3     1  UNL1        0.2087
     13 C           8.7580    0.2350   23.8890 C.3     1  UNL1        0.0879
     14 O           8.9900   -1.7130   22.5970 O.3     1  UNL1       -0.3428
     15 C           9.7770   -2.7420   23.2020 C.3     1  UNL1        0.1750
     16 N           8.0880   -0.4510   20.6640 N.am    1  UNL1       -0.1754
     17 C           7.1810   -0.0120   19.6840 C.ar    1  UNL1        0.0925
     18 C           5.9500    0.5690   20.1220 C.ar    1  UNL1        0.0184
     19 C           5.5670    0.6750   21.4850 C.ar    1  UNL1        0.0014
     20 C           4.4040    1.2970   21.8420 C.ar    1  UNL1        0.0000
     21 C           3.5680    1.8400   20.8770 C.ar    1  UNL1        0.0001
     22 C           3.8890    1.7610   19.5530 C.ar    1  UNL1        0.0016
     23 C           5.0830    1.1190   19.1380 C.ar    1  UNL1        0.0204
     24 C           5.4890    1.0350   17.7870 C.ar    1  UNL1        0.0989
     25 N           6.6270    0.4820   17.3830 N.ar    1  UNL1       -0.2410
     26 C           7.4400   -0.0260   18.3180 C.ar    1  UNL1        0.1154
@<TRIPOS>BOND
     1     2     1    2
     2     3     2    1
     3     4     3    1
     4     5     4   ar
     5     6     5   ar
     6     7     6    1
     7     8     6   ar
     8     9     8   ar
     9    10     9   ar
    10    10     4   ar
    11    11    10    1
    12    12    11    1
    13    13    12    1
    14    13     3    1
    15     3    14    1
    16    15    14    1
    17    16     2   am
    18    17    16    1
    19    18    17   ar
    20    19    18   ar
    21    20    19   ar
    22    21    20   ar
    23    22    21   ar
    24    23    22   ar
    25    23    18   ar
    26    24    23   ar
    27    25    24   ar
    28    26    25   ar
    29    26    17   ar
