@<TRIPOS>MOLECULE
*****
 19 20 0 0 0
SMALL
GASTEIGER

@<TRIPOS>ATOM
      1 N           7.9800    4.3890   22.5360 N.1     1  UNL1       -0.1920
      2 C           7.8750    3.2570   22.4280 C.1     1  UNL1        0.1218
      3 C           7.8040    1.7920   22.2880 C.3     1  UNL1        0.3090
      4 O           6.5080    1.2710   21.9350 O.3     1  UNL1       -0.4591
      5 C           6.2810    0.9400   20.6210 C.ar    1  UNL1        0.1445
      6 C           5.5520    1.7570   19.7680 C.ar    1  UNL1        0.0371
      7 C           5.5380    1.4800   18.4100 C.ar    1  UNL1        0.0031
      8 C           6.2540    0.4150   17.9080 C.ar    1  UNL1        0.0003
      9 C           6.9370   -0.4330   18.7630 C.ar    1  UNL1        0.0076
     10 C           6.9200   -0.2120   20.1430 C.ar    1  UNL1        0.0890
     11 C           7.4120   -1.3510   20.9850 C.2     1  UNL1        0.2680
     12 O           6.6840   -2.3130   21.2140 O.2     1  UNL1       -0.2682
     13 N           8.6520   -1.2610   21.4760 N.am    1  UNL1       -0.1966
     14 C           9.1060   -2.1380   22.5330 C.3     1  UNL1        0.1439
     15 C          10.4770   -1.7960   23.0100 C.ar    1  UNL1        0.0272
     16 C          10.8740   -1.6670   24.3090 C.ar    1  UNL1        0.0538
     17 S          12.5250   -1.3360   24.3810 S.2     1  UNL1        0.0133
     18 N          12.7270   -1.3570   22.7220 N.ar    1  UNL1       -0.2079
     19 C          11.5630   -1.6050   22.1380 C.ar    1  UNL1        0.1053
@<TRIPOS>BOND
     1     2     1    3
     2     3     2    1
     3     4     3    1
     4     5     4    1
     5     6     5   ar
     6     7     6   ar
     7     8     7   ar
     8     9     8   ar
     9    10     9   ar
    10    10     5   ar
    11    11    10    1
    12    12    11    2
    13    13    11   am
    14    14    13    1
    15    15    14    1
    16    16    15   ar
    17    17    16   ar
    18    18    17   ar
    19    19    15   ar
    20    19    18   ar
