@<TRIPOS>MOLECULE
*****
 5 4 0 0 0
SMALL
GASTEIGER

@<TRIPOS>ATOM
      1 N          10.2630   -5.8010   25.0960 N.pl3   1  UNL1        0.1994
      2 C           8.8220   -3.5490   23.3680 C.3     1  UNL1        0.0140
      3 C           8.2100   -4.7890   24.0210 C.3     1  UNL1        0.1335
      4 C           9.1000   -5.2470   25.1770 C.2     1  UNL1        0.4538
      5 N           8.5860   -5.0380   26.4480 N.pl3   1  UNL1        0.1994
@<TRIPOS>BOND
     1     3     2    1
     2     4     1    2
     3     4     3    1
     4     5     4    1
