@<TRIPOS>MOLECULE
*****
 17 19 0 0 0
SMALL
GASTEIGER

@<TRIPOS>ATOM
      1 O           9.8990    0.4490   21.0390 O.2     1  UNL1       -0.2730
      2 C           9.0550    0.1340   21.8620 C.2     1  UNL1        0.2451
      3 C           9.4240   -0.4250   23.2180 C.3     1  UNL1        0.0785
      4 C          10.9160   -0.8690   23.4100 C.3     1  UNL1        0.0082
      5 C          11.9810   -1.1550   22.3100 C.3     1  UNL1        0.0005
      6 C          12.8250    0.0060   22.8340 C.3     1  UNL1        0.0000
      7 C          11.9600    0.0550   24.0950 C.3     1  UNL1        0.0005
      8 C          10.3880   -2.1200   24.1550 C.3     1  UNL1        0.0010
      9 C           9.0040   -1.8740   23.5270 C.3     1  UNL1        0.0091
     10 N           7.7360    0.3610   21.6930 N.am    1  UNL1       -0.1780
     11 C           6.9780    0.4450   20.4970 C.ar    1  UNL1        0.0885
     12 C           5.6270    0.8390   20.5790 C.ar    1  UNL1       -0.0034
     13 C           4.9360    1.0500   21.9020 C.3     1  UNL1        0.0325
     14 C           7.5190    0.1870   19.2340 C.ar    1  UNL1        0.1151
     15 N           6.8480    0.3620   18.0910 N.ar    1  UNL1       -0.2410
     16 C           5.5870    0.7950   18.1820 C.ar    1  UNL1        0.0987
     17 C           4.9440    1.0300   19.3810 C.ar    1  UNL1        0.0177
@<TRIPOS>BOND
     1     2     1    2
     2     3     2    1
     3     4     3    1
     4     4     5    1
     5     6     5    1
     6     7     6    1
     7     7     4    1
     8     8     4    1
     9     9     8    1
    10     9     3    1
    11    10     2   am
    12    11    10    1
    13    12    11   ar
    14    13    12    1
    15    14    11   ar
    16    15    14   ar
    17    16    15   ar
    18    17    16   ar
    19    17    12   ar
