@<TRIPOS>MOLECULE
*****
 26 29 0 0 0
SMALL
GASTEIGER

@<TRIPOS>ATOM
      1 O           8.4920    0.9570   21.3750 O.2     1  UNL1       -0.2700
      2 C           8.1920   -0.2180   21.5350 C.2     1  UNL1        0.2777
      3 C           8.6310   -0.9960   22.8270 C.3     1  UNL1        0.2247
      4 C          10.0640   -0.5840   23.1580 C.ar    1  UNL1        0.0301
      5 C          11.1640   -1.2920   22.6820 C.ar    1  UNL1        0.0112
      6 C          12.4100   -0.6960   22.7090 C.ar    1  UNL1        0.0575
      7 CL         13.7630   -1.5420   22.0150 Cl      1  UNL1       -0.0823
      8 C          12.6060    0.5590   23.2460 C.ar    1  UNL1        0.0127
      9 C          11.5290    1.2420   23.7810 C.ar    1  UNL1        0.0172
     10 C          10.2540    0.6780   23.7360 C.ar    1  UNL1        0.0722
     11 N           9.1510    1.4000   24.2000 N.am    1  UNL1       -0.1793
     12 C           7.8880    0.9270   24.2520 C.2     1  UNL1        0.2489
     13 O           6.9270    1.6740   24.4370 O.2     1  UNL1       -0.2729
     14 C           7.7040   -0.5420   23.9690 C.3     1  UNL1        0.1308
     15 O           8.5110   -2.4090   22.7090 O.3     1  UNL1       -0.2112
     16 N           7.5290   -0.9000   20.5820 N.am    1  UNL1       -0.1753
     17 C           6.5820   -0.4640   19.6370 C.ar    1  UNL1        0.0925
     18 C           5.5790    0.4990   19.9910 C.ar    1  UNL1        0.0184
     19 C           5.0370    0.6330   21.2970 C.ar    1  UNL1        0.0014
     20 C           4.0150    1.5050   21.5490 C.ar    1  UNL1        0.0000
     21 C           3.4860    2.2880   20.5350 C.ar    1  UNL1        0.0001
     22 C           3.9740    2.2010   19.2640 C.ar    1  UNL1        0.0016
     23 C           5.0230    1.3020   18.9540 C.ar    1  UNL1        0.0204
     24 C           5.5070    1.1090   17.6400 C.ar    1  UNL1        0.0989
     25 N           6.4020    0.1940   17.3070 N.ar    1  UNL1       -0.2410
     26 C           6.8870   -0.5790   18.2850 C.ar    1  UNL1        0.1154
@<TRIPOS>BOND
     1     2     1    2
     2     3     2    1
     3     4     3    1
     4     5     4   ar
     5     6     5   ar
     6     7     6    1
     7     8     6   ar
     8     9     8   ar
     9    10     4   ar
    10    10     9   ar
    11    11    10    1
    12    12    11   am
    13    13    12    2
    14    14    12    1
    15    14     3    1
    16     3    15    1
    17    16     2   am
    18    17    16    1
    19    18    17   ar
    20    19    18   ar
    21    20    19   ar
    22    21    20   ar
    23    22    21   ar
    24    23    22   ar
    25    23    18   ar
    26    24    23   ar
    27    25    24   ar
    28    26    25   ar
    29    26    17   ar
