@<TRIPOS>MOLECULE
*****
 15 16 0 0 0
SMALL
GASTEIGER

@<TRIPOS>ATOM
      1 C          26.0770  -10.3880    4.1090 C.3     1  UNL1        0.0795
      2 C          26.4320  -10.3160    5.6010 C.3     1  UNL1        0.0843
      3 C          27.9430  -10.8200    7.2050 C.3     1  UNL1        0.1046
      4 C          27.7370  -11.8120    8.3390 C.3     1  UNL1        0.1595
      5 C          27.0480  -13.4200    6.8720 C.3     1  UNL1        0.1595
      6 C          27.1470  -12.4830    5.6740 C.3     1  UNL1        0.1046
      7 C          23.4180   -9.4780    4.7100 C.ar    1  UNL1        0.0253
      8 C          23.6960   -8.1830    4.3150 C.ar    1  UNL1        0.0061
      9 C          23.0260   -7.1320    4.8960 C.ar    1  UNL1        0.0005
     10 C          22.0750   -7.3560    5.8790 C.ar    1  UNL1        0.0000
     11 C          21.8020   -8.6510    6.2760 C.ar    1  UNL1        0.0005
     12 C          22.4780   -9.7180    5.6940 C.ar    1  UNL1        0.0061
     13 N          27.3450  -11.1340    5.9810 N.3     1  UNL1       -0.2677
     14 O          27.9240  -13.0960    7.8970 O.3     1  UNL1       -0.3508
     15 S          24.3240  -10.8400    3.9410 S.3     1  UNL1       -0.1122
@<TRIPOS>BOND
     1     2     1    1
     2     4     3    1
     3     6     5    1
     4     8     7   ar
     5     9     8   ar
     6    10     9   ar
     7    11    10   ar
     8    12     7   ar
     9    12    11   ar
    10    13     6    1
    11    13     2    1
    12    13     3    1
    13    14     5    1
    14    14     4    1
    15    15     7    1
    16    15     1    1
