@<TRIPOS>MOLECULE
*****
 28 29 0 0 0
SMALL
GASTEIGER

@<TRIPOS>ATOM
      1 O           9.2900    1.5740   20.9480 O.2     1  UNL1       -0.2712
      2 C           8.3430    1.3200   21.6850 C.2     1  UNL1        0.2641
      3 N           8.1080    1.9240   22.8610 N.am    1  UNL1       -0.2071
      4 C           8.9300    2.9860   23.4910 C.3     1  UNL1        0.0788
      5 C          10.4100    2.8320   23.1640 C.3     1  UNL1        0.0217
      6 C           8.4270    4.3370   23.0020 C.3     1  UNL1        0.0217
      7 C           8.7300    2.8720   24.9950 C.3     1  UNL1        0.0217
      8 C           7.3200    0.2360   21.3090 C.3     1  UNL1        0.1829
      9 N           7.6960   -1.1520   21.6740 N.am    1  UNL1       -0.2302
     10 C           8.8510   -1.4100   22.4820 C.ar    1  UNL1        0.1798
     11 C          10.1940   -0.9900   22.2760 C.ar    1  UNL1        0.0736
     12 C          10.8190   -1.3440   23.4060 C.ar    1  UNL1        0.1549
     13 C          12.2540   -1.1170   23.8260 C.3     1  UNL1        0.0539
     14 C          12.7840   -2.3560   24.5550 C.3     1  UNL1        0.0076
     15 C          12.3230    0.0850   24.7700 C.3     1  UNL1        0.0076
     16 C          13.1210   -0.8520   22.5910 C.3     1  UNL1        0.0076
     17 O           9.9850   -1.9650   24.2640 O.2     1  UNL1       -0.3565
     18 N           8.6970   -2.0230   23.6790 N.ar    1  UNL1       -0.0618
     19 C           6.8810   -2.2670   21.4500 C.2     1  UNL1        0.2310
     20 O           5.6720   -2.1240   21.4750 O.2     1  UNL1       -0.2745
     21 C           7.5130   -3.6060   21.2000 C.3     1  UNL1        0.0857
     22 C           7.1390   -4.1360   19.8690 C.3     1  UNL1        0.0101
     23 C           6.7200    0.4560   19.9290 C.ar    1  UNL1        0.0241
     24 C           5.5750    1.2240   19.7680 C.ar    1  UNL1        0.0010
     25 C           5.0740    1.4670   18.5010 C.ar    1  UNL1        0.0204
     26 C           5.7380    0.9230   17.4190 C.ar    1  UNL1        0.0989
     27 N           6.8340    0.1620   17.5390 N.ar    1  UNL1       -0.2426
     28 C           7.3010   -0.0540   18.7760 C.ar    1  UNL1        0.0967
@<TRIPOS>BOND
     1     2     1    2
     2     3     2   am
     3     4     3    1
     4     4     5    1
     5     6     4    1
     6     7     4    1
     7     8     2    1
     8     9     8    1
     9    10     9    1
    10    11    10   ar
    11    12    11   ar
    12    13    12    1
    13    13    14    1
    14    15    13    1
    15    16    13    1
    16    17    12   ar
    17    18    17   ar
    18    18    10   ar
    19    19     9   am
    20    20    19    2
    21    21    19    1
    22    22    21    1
    23    23     8    1
    24    24    23   ar
    25    25    24   ar
    26    26    25   ar
    27    27    26   ar
    28    28    27   ar
    29    28    23   ar
