@<TRIPOS>MOLECULE
*****
 22 24 0 0 0
SMALL
GASTEIGER

@<TRIPOS>ATOM
      1 O           9.3000    0.9330   21.1040 O.2     1  UNL1       -0.2726
      2 C           8.7770   -0.1100   21.5080 C.2     1  UNL1        0.2501
      3 C           9.4440   -0.9910   22.5450 C.3     1  UNL1        0.1157
      4 C          10.8880   -0.6350   22.8090 C.ar    1  UNL1        0.0167
      5 C          11.2280    0.4170   23.6390 C.ar    1  UNL1        0.1367
      6 F          10.2260    1.0930   24.2470 F       1  UNL1       -0.2045
      7 C          12.5240    0.8380   23.8340 C.ar    1  UNL1        0.0316
      8 C          13.5400    0.2010   23.1460 C.ar    1  UNL1        0.0319
      9 C          11.9180   -1.2690   22.1180 C.ar    1  UNL1        0.0281
     10 C          13.2060   -0.8200   22.2920 C.ar    1  UNL1        0.1400
     11 F          14.1830   -1.3610   21.5130 F       1  UNL1       -0.2042
     12 N           7.5870   -0.5700   21.0630 N.am    1  UNL1       -0.1773
     13 C           6.7990   -0.0380   20.0220 C.ar    1  UNL1        0.0925
     14 C           5.6670    0.7680   20.3610 C.ar    1  UNL1        0.0184
     15 C           5.2480    1.0230   21.6920 C.ar    1  UNL1        0.0014
     16 C           4.1780    1.8360   21.9470 C.ar    1  UNL1        0.0000
     17 C           3.4790    2.4320   20.9090 C.ar    1  UNL1        0.0001
     18 C           3.8420    2.2170   19.6110 C.ar    1  UNL1        0.0016
     19 C           4.9410    1.3780   19.3000 C.ar    1  UNL1        0.0204
     20 C           5.3830    1.1390   17.9740 C.ar    1  UNL1        0.0989
     21 N           6.4320    0.3890   17.6620 N.ar    1  UNL1       -0.2410
     22 C           7.1090   -0.1790   18.6700 C.ar    1  UNL1        0.1154
@<TRIPOS>BOND
     1     2     1    2
     2     3     2    1
     3     4     3    1
     4     5     4   ar
     5     6     5    1
     6     7     5   ar
     7     8     7   ar
     8     9     4   ar
     9    10     9   ar
    10    10     8   ar
    11    11    10    1
    12    12     2   am
    13    13    12    1
    14    14    13   ar
    15    15    14   ar
    16    16    15   ar
    17    17    16   ar
    18    18    17   ar
    19    19    18   ar
    20    19    14   ar
    21    20    19   ar
    22    21    20   ar
    23    22    21   ar
    24    22    13   ar
