@<TRIPOS>MOLECULE
*****
 16 17 0 0 0
SMALL
GASTEIGER

@<TRIPOS>ATOM
      1 C           6.6950   -3.4370   19.9690 C.2     1  UNL1        0.2263
      2 C           7.3310   -2.6630   18.8460 C.3     1  UNL1        0.0948
      3 C           6.4490   -3.7840   22.4030 C.3     1  UNL1        0.1255
      4 C           7.5570   -4.3740   23.2420 C.3     1  UNL1        0.1640
      5 C           8.4720   -2.2020   22.9890 C.3     1  UNL1        0.1572
      6 C           9.7550   -1.4400   23.2260 C.ar    1  UNL1        0.0064
      7 C           9.8900   -0.6700   24.3680 C.ar    1  UNL1        0.0004
      8 C          11.0440    0.0420   24.6150 C.ar    1  UNL1        0.0294
      9 C          12.0520   -0.0310   23.7050 C.ar    1  UNL1        0.1401
     10 C          11.9720   -0.7740   22.5610 C.ar    1  UNL1        0.0294
     11 C          10.8120   -1.4860   22.3290 C.ar    1  UNL1        0.0004
     12 C           7.8700   -1.9670   21.6100 C.3     1  UNL1        0.1275
     13 F          13.1880    0.6720   23.9560 F       1  UNL1       -0.2042
     14 N           7.0080   -3.0850   21.2350 N.am    1  UNL1       -0.2741
     15 O           5.9240   -4.3540   19.7160 O.2     1  UNL1       -0.2749
     16 O           8.7510   -3.5820   23.1840 O.3     1  UNL1       -0.3483
@<TRIPOS>BOND
     1     2     1    1
     2     4     3    1
     3     5     6    1
     4     7     6   ar
     5     8     7   ar
     6     9     8   ar
     7    10     9   ar
     8    11     6   ar
     9    11    10   ar
    10    12     5    1
    11    13     9    1
    12    14    12    1
    13    14     1   am
    14    14     3    1
    15    15     1    2
    16    16     5    1
    17    16     4    1
