@<TRIPOS>MOLECULE
*****
 16 17 0 0 0
SMALL
GASTEIGER

@<TRIPOS>ATOM
      1 N           7.0710   -2.9690   21.0210 N.am    1  UNL1       -0.2760
      2 C           7.2590   -2.5880   18.5860 C.3     1  UNL1        0.0948
      3 O           5.8660   -4.2170   19.6060 O.2     1  UNL1       -0.2749
      4 C           6.6770   -3.3160   19.7790 C.2     1  UNL1        0.2262
      5 C           8.7940   -5.3630   27.4630 C.ar    1  UNL1        0.0356
      6 C           6.6430   -3.7900   22.1550 C.3     1  UNL1        0.1149
      7 C           7.8120   -4.1020   23.0560 C.3     1  UNL1        0.1152
      8 C           8.9060   -2.0460   22.4250 C.3     1  UNL1        0.1152
      9 C           7.8180   -1.7610   21.4040 C.3     1  UNL1        0.1149
     10 C           8.5180   -2.5530   24.8490 C.2     1  UNL1        0.2551
     11 C           8.8070   -3.6480   25.7170 C.ar    1  UNL1        0.0830
     12 C           9.6990   -4.6700   25.4620 C.ar    1  UNL1        0.0116
     13 C           9.5670   -5.7040   26.4090 C.ar    1  UNL1        0.0076
     14 N           8.3730   -2.8400   23.5310 N.am    1  UNL1       -0.2722
     15 O           8.4170   -1.4130   25.2970 O.2     1  UNL1       -0.2694
     16 S           8.0370   -3.8600   27.2430 S.2     1  UNL1       -0.0819
@<TRIPOS>BOND
     1     4     3    2
     2     4     2    1
     3     4     1   am
     4     6     1    1
     5     7     6    1
     6     9     1    1
     7     9     8    1
     8    11    10    1
     9    12    11   ar
    10    13    12   ar
    11    13     5   ar
    12    14    10   am
    13    14     8    1
    14    14     7    1
    15    15    10    2
    16    16    11   ar
    17    16     5   ar
