@<TRIPOS>MOLECULE
*****
 24 27 0 0 0
SMALL
GASTEIGER

@<TRIPOS>ATOM
      1 O           9.2830    1.0730   21.1730 O.2     1  UNL1       -0.2726
      2 C           8.7720    0.0440   21.6110 C.2     1  UNL1        0.2493
      3 C           9.3390   -0.6970   22.8240 C.3     1  UNL1        0.1038
      4 C           8.5790   -0.2800   24.1030 C.3     1  UNL1        0.0369
      5 C           8.9790    1.1160   24.5380 C.3     1  UNL1        0.1130
      6 N          10.4290    1.2000   24.6920 N.pl3   1  UNL1       -0.2379
      7 C          10.8280   -0.4270   22.9440 C.ar    1  UNL1        0.0020
      8 C          11.3000    0.5370   23.8520 C.ar    1  UNL1        0.0618
      9 C          12.6650    0.8320   23.9070 C.ar    1  UNL1        0.0166
     10 C          13.5570    0.1800   23.0710 C.ar    1  UNL1        0.0127
     11 C          11.7440   -1.1020   22.1390 C.ar    1  UNL1        0.0089
     12 C          13.0840   -0.7810   22.2030 C.ar    1  UNL1        0.0575
     13 CL         14.1960   -1.5760   21.1210 Cl      1  UNL1       -0.0823
     14 N           7.6580   -0.5030   21.0870 N.am    1  UNL1       -0.1774
     15 C           6.9110   -0.0040   20.0050 C.ar    1  UNL1        0.0925
     16 C           5.7700    0.8090   20.2840 C.ar    1  UNL1        0.0184
     17 C           5.3130    1.1050   21.5940 C.ar    1  UNL1        0.0014
     18 C           4.2320    1.9170   21.7950 C.ar    1  UNL1        0.0000
     19 C           3.5490    2.4660   20.7180 C.ar    1  UNL1        0.0001
     20 C           3.9510    2.2130   19.4390 C.ar    1  UNL1        0.0016
     21 C           5.0710    1.3820   19.1850 C.ar    1  UNL1        0.0204
     22 C           5.5490    1.1030   17.8820 C.ar    1  UNL1        0.0989
     23 N           6.6140    0.3560   17.6220 N.ar    1  UNL1       -0.2410
     24 C           7.2700   -0.1760   18.6680 C.ar    1  UNL1        0.1154
@<TRIPOS>BOND
     1     2     1    2
     2     3     2    1
     3     4     3    1
     4     5     4    1
     5     6     5    1
     6     7     3    1
     7     8     7   ar
     8     8     6    1
     9     9     8   ar
    10    10     9   ar
    11    11     7   ar
    12    12    11   ar
    13    12    10   ar
    14    13    12    1
    15    14     2   am
    16    15    14    1
    17    16    15   ar
    18    17    16   ar
    19    18    17   ar
    20    19    18   ar
    21    20    19   ar
    22    21    20   ar
    23    21    16   ar
    24    22    21   ar
    25    23    22   ar
    26    24    23   ar
    27    24    15   ar
