@<TRIPOS>MOLECULE
*****
 24 26 0 0 0
SMALL
GASTEIGER

@<TRIPOS>ATOM
      1 O          13.3650    6.8310   22.0800 O.2     1  UNL1       -0.2730
      2 C          13.3830    5.6270   22.3300 C.2     1  UNL1        0.2499
      3 C          12.7740    4.3770   21.7080 C.3     1  UNL1        0.1539
      4 N          13.9760    4.9240   23.3130 N.am    1  UNL1       -0.1652
      5 C          13.6420    3.6170   22.7170 C.3     1  UNL1        0.2718
      6 O          12.7580    2.8360   23.5460 O.3     1  UNL1       -0.4583
      7 C          12.4220    1.5760   23.0940 C.ar    1  UNL1        0.1412
      8 C          13.3970    0.6660   22.7190 C.ar    1  UNL1        0.0483
      9 C          12.9910   -0.5810   22.2890 C.ar    1  UNL1        0.0604
     10 CL         14.1920   -1.7270   21.7660 Cl      1  UNL1       -0.0822
     11 C          11.6550   -0.9330   22.2230 C.ar    1  UNL1        0.0078
     12 C          11.0750    1.2440   23.0520 C.ar    1  UNL1        0.0332
     13 C          10.6840   -0.0150   22.6070 C.ar    1  UNL1       -0.0092
     14 C           9.2190   -0.3740   22.5140 C.3     1  UNL1        0.1136
     15 C           8.5370    0.3390   21.3640 C.2     1  UNL1        0.2500
     16 O           8.9560    1.4080   20.9230 O.2     1  UNL1       -0.2726
     17 N           7.4340   -0.2790   20.8840 N.am    1  UNL1       -0.1777
     18 C           6.6760    0.2320   19.8050 C.ar    1  UNL1        0.0885
     19 C           5.5820    1.0780   20.0610 C.ar    1  UNL1       -0.0034
     20 C           5.1310    1.3970   21.4650 C.3     1  UNL1        0.0325
     21 C           7.0310   -0.0200   18.4790 C.ar    1  UNL1        0.1151
     22 N           6.3810    0.5000   17.4290 N.ar    1  UNL1       -0.2410
     23 C           5.3470    1.3090   17.6870 C.ar    1  UNL1        0.0987
     24 C           4.9180    1.6170   18.9640 C.ar    1  UNL1        0.0177
@<TRIPOS>BOND
     1     2     1    2
     2     3     2    1
     3     4     2   am
     4     5     3    1
     5     5     4    1
     6     5     6    1
     7     7     6    1
     8     8     7   ar
     9     9     8   ar
    10    10     9    1
    11    11     9   ar
    12    12     7   ar
    13    13    12   ar
    14    13    11   ar
    15    14    13    1
    16    15    14    1
    17    16    15    2
    18    17    15   am
    19    18    17    1
    20    19    18   ar
    21    20    19    1
    22    21    18   ar
    23    22    21   ar
    24    23    22   ar
    25    24    23   ar
    26    24    19   ar
