@<TRIPOS>MOLECULE
*****
 20 22 0 0 0
SMALL
GASTEIGER

@<TRIPOS>ATOM
      1 C           6.3400    0.3650   20.0990 C.3     1  UNL1        0.0376
      2 C           5.6010    1.2260   17.6100 C.3     1  UNL1        0.0887
      3 N           8.9800   -0.6440   22.2900 N.3     1  UNL1       -0.2089
      4 N           6.6610    0.4130   17.7110 N.3     1  UNL1       -0.2180
      5 C           4.8570    1.6390   18.7000 C.3     1  UNL1        0.0189
      6 C          13.0330   -0.4980   23.4440 C.3     1  UNL1        0.0163
      7 O           8.9460    1.3980   21.2030 O.3     1  UNL1       -0.2033
      8 C          12.6350   -1.2300   22.3410 C.3     1  UNL1        0.0813
      9 C           8.3670    0.4150   21.6230 C.3     1  UNL1        0.2316
     10 C          12.0680    0.1540   24.1980 C.3     1  UNL1        0.0026
     11 C           8.1140   -1.7380   22.4130 C.3     1  UNL1        0.2925
     12 N           6.9320   -1.3610   21.8790 N.3     1  UNL1       -0.1719
     13 O           8.3820   -2.8190   22.9150 O.3     1  UNL1       -0.1843
     14 C          11.3120   -1.3120   21.9570 C.3     1  UNL1        0.0324
     15 C           6.9060    0.0380   21.4740 C.3     1  UNL1        0.1241
     16 C          10.3550   -0.6380   22.7120 C.3     1  UNL1        0.0645
     17 C           6.9990   -0.0080   18.9360 C.3     1  UNL1        0.0902
     18 C           5.2360    1.1950   19.9560 C.3     1  UNL1        0.0044
     19 C          10.7300    0.0840   23.8420 C.3     1  UNL1        0.0162
     20 CL         13.8290   -2.1070   21.4270 Cl      1  UNL1       -0.1150
@<TRIPOS>BOND
     1     4     2    1
     2     5     2    1
     3     8     6    1
     4     9     7    1
     5     9     3    1
     6    10     6    1
     7    11     3    1
     8    12    11    1
     9    13    11    1
    10    14     8    1
    11    15     9    1
    12    15     1    1
    13    15    12    1
    14    16     3    1
    15    16    14    1
    16    17     4    1
    17     1    17    1
    18    18     5    1
    19    18     1    1
    20    19    16    1
    21    19    10    1
    22    20     8    1
