@<TRIPOS>MOLECULE
*****
 26 29 0 0 0
SMALL
GASTEIGER

@<TRIPOS>ATOM
      1 CL         14.1400   -1.5830   21.1280 Cl      1  UNL1       -0.0823
      2 C          13.0690   -0.7000   22.1850 C.ar    1  UNL1        0.0576
      3 C          13.5790    0.3250   22.9530 C.ar    1  UNL1        0.0145
      4 C          12.7120    1.1310   23.6680 C.ar    1  UNL1        0.0374
      5 C          11.7150   -0.9680   22.1400 C.ar    1  UNL1        0.0106
      6 C          10.8270   -0.1620   22.8510 C.ar    1  UNL1        0.0212
      7 C          11.3490    0.8820   23.6150 C.ar    1  UNL1        0.1350
      8 O          10.5550    1.6700   24.4060 O.3     1  UNL1       -0.4757
      9 C           9.4690    0.9340   24.9950 C.3     1  UNL1        0.2062
     10 C           8.5440    0.3190   23.9640 C.3     1  UNL1        0.0610
     11 C           9.3270   -0.3820   22.8150 C.3     1  UNL1        0.1074
     12 C           8.8460    0.1730   21.4730 C.2     1  UNL1        0.2495
     13 O           9.3900    1.1280   20.9330 O.2     1  UNL1       -0.2726
     14 N           7.7420   -0.4320   20.9710 N.am    1  UNL1       -0.1774
     15 C           6.9160    0.0030   19.9110 C.ar    1  UNL1        0.0926
     16 C           7.2440   -0.0990   18.5570 C.ar    1  UNL1        0.1154
     17 N           6.5550    0.4590   17.5510 N.ar    1  UNL1       -0.2410
     18 C           5.4770    1.1640   17.8640 C.ar    1  UNL1        0.0989
     19 C           5.7290    0.7290   20.2450 C.ar    1  UNL1        0.0214
     20 C           5.0030    1.3470   19.1860 C.ar    1  UNL1        0.0206
     21 C           3.8620    2.1240   19.5010 C.ar    1  UNL1        0.0047
     22 C           3.4520    2.2710   20.7920 C.ar    1  UNL1        0.0370
     23 C           5.2600    0.8840   21.5740 C.ar    1  UNL1        0.0383
     24 C           4.1450    1.6420   21.8320 C.ar    1  UNL1        0.1388
     25 O           3.7200    1.7590   23.1370 O.3     1  UNL1       -0.4714
     26 C           2.5620    2.5520   23.4230 C.3     1  UNL1        0.2525
@<TRIPOS>BOND
     1     2     1    1
     2     3     2   ar
     3     4     3   ar
     4     5     2   ar
     5     6     5   ar
     6     7     6   ar
     7     7     4   ar
     8     8     7    1
     9     9     8    1
    10    10     9    1
    11    11    10    1
    12    11     6    1
    13    11    12    1
    14    13    12    2
    15    14    12   am
    16    15    14    1
    17    16    15   ar
    18    17    16   ar
    19    18    17   ar
    20    19    15   ar
    21    20    19   ar
    22    20    18   ar
    23    21    20   ar
    24    22    21   ar
    25    23    19   ar
    26    24    23   ar
    27    24    22   ar
    28    25    24    1
    29    26    25    1
