@<TRIPOS>MOLECULE
*****
 27 30 0 0 0
SMALL
GASTEIGER

@<TRIPOS>ATOM
      1 F           3.7430    2.1640   23.1230 F       1  UNL1       -0.2042
      2 C           4.1730    1.8810   21.8630 C.ar    1  UNL1        0.1402
      3 C           3.4160    2.3290   20.8030 C.ar    1  UNL1        0.0297
      4 C           3.8180    2.0430   19.5320 C.ar    1  UNL1        0.0039
      5 C           5.3160    1.1690   21.7180 C.ar    1  UNL1        0.0310
      6 C           5.7730    0.8600   20.4090 C.ar    1  UNL1        0.0206
      7 C           5.0030    1.3060   19.2960 C.ar    1  UNL1        0.0206
      8 C           5.4790    0.9970   17.9980 C.ar    1  UNL1        0.0989
      9 N           6.5890    0.3150   17.7540 N.ar    1  UNL1       -0.2410
     10 C           7.3030   -0.1020   18.8090 C.ar    1  UNL1        0.1154
     11 C           6.9770    0.1340   20.1460 C.ar    1  UNL1        0.0926
     12 N           7.7870   -0.2440   21.2430 N.am    1  UNL1       -0.1754
     13 C           8.9240    0.3500   21.6750 C.2     1  UNL1        0.2742
     14 O           9.4330    1.3130   21.1200 O.2     1  UNL1       -0.2701
     15 C           9.5020   -0.1760   23.0320 C.3     1  UNL1        0.1877
     16 O           8.8670   -1.4430   23.2760 O.3     1  UNL1       -0.3428
     17 C           9.5260   -2.6270   22.8090 C.3     1  UNL1        0.1750
     18 C          11.0150   -0.1590   23.1480 C.ar    1  UNL1        0.0453
     19 C          11.8020   -0.7200   22.1450 C.ar    1  UNL1        0.0129
     20 C          13.1580   -0.4500   22.1110 C.ar    1  UNL1        0.0576
     21 CL         14.1370   -1.2180   20.8940 Cl      1  UNL1       -0.0823
     22 C          13.7600    0.3830   23.0260 C.ar    1  UNL1        0.0145
     23 C          13.0010    0.9370   24.0390 C.ar    1  UNL1        0.0375
     24 C          11.6430    0.6650   24.0970 C.ar    1  UNL1        0.1372
     25 O          10.9650    1.2810   25.1220 O.3     1  UNL1       -0.4756
     26 C           9.6290    0.8010   25.3440 C.3     1  UNL1        0.2087
     27 C           8.8370    0.7600   24.0540 C.3     1  UNL1        0.0879
@<TRIPOS>BOND
     1     2     1    1
     2     3     2   ar
     3     4     3   ar
     4     5     2   ar
     5     6     5   ar
     6     7     4   ar
     7     7     6   ar
     8     8     7   ar
     9     9     8   ar
    10    10     9   ar
    11    11    10   ar
    12    11     6   ar
    13    12    11    1
    14    13    12   am
    15    14    13    2
    16    15    13    1
    17    15    16    1
    18    17    16    1
    19    18    15    1
    20    19    18   ar
    21    20    19   ar
    22    21    20    1
    23    22    20   ar
    24    23    22   ar
    25    24    23   ar
    26    24    18   ar
    27    25    24    1
    28    26    25    1
    29    27    26    1
    30    27    15    1
