@<TRIPOS>MOLECULE
*****
 27 30 0 0 0
SMALL
GASTEIGER

@<TRIPOS>ATOM
      1 F           2.5380    2.9020   20.9340 F       1  UNL1       -0.2042
      2 C           3.7050    2.2200   20.7800 C.ar    1  UNL1        0.1402
      3 C           4.1200    1.9230   19.5230 C.ar    1  UNL1        0.0312
      4 C           4.3930    1.8540   21.9120 C.ar    1  UNL1        0.0297
      5 C           5.5590    1.1620   21.7890 C.ar    1  UNL1        0.0037
      6 C           6.0640    0.8000   20.5150 C.ar    1  UNL1        0.0185
      7 C           5.3160    1.1800   19.3610 C.ar    1  UNL1        0.0227
      8 C           5.7980    0.7600   18.0970 C.ar    1  UNL1        0.0990
      9 N           6.8970    0.0400   17.9200 N.ar    1  UNL1       -0.2410
     10 C           7.6030   -0.2930   19.0110 C.ar    1  UNL1        0.1154
     11 C           7.2690    0.0500   20.3220 C.ar    1  UNL1        0.0925
     12 N           8.0530   -0.2770   21.4550 N.am    1  UNL1       -0.1754
     13 C           9.1860    0.3150   21.9220 C.2     1  UNL1        0.2742
     14 O           9.7160    1.3030   21.4300 O.2     1  UNL1       -0.2701
     15 C           9.8380   -0.3780   23.1750 C.3     1  UNL1        0.1877
     16 O           9.4570   -1.7410   22.9670 O.3     1  UNL1       -0.3428
     17 C           9.8930   -2.6920   23.9440 C.3     1  UNL1        0.1750
     18 C          11.3470   -0.2590   23.2240 C.ar    1  UNL1        0.0453
     19 C          12.1130   -0.8200   22.2070 C.ar    1  UNL1        0.0129
     20 C          13.4320   -0.4360   22.0590 C.ar    1  UNL1        0.0576
     21 CL         14.3890   -1.1930   20.8160 Cl      1  UNL1       -0.0823
     22 C          14.0180    0.5040   22.8870 C.ar    1  UNL1        0.0145
     23 C          13.2790    1.0500   23.9220 C.ar    1  UNL1        0.0375
     24 C          11.9540    0.6710   24.0820 C.ar    1  UNL1        0.1372
     25 O          11.2810    1.2680   25.1190 O.3     1  UNL1       -0.4756
     26 C           9.8790    1.5080   24.8470 C.3     1  UNL1        0.2087
     27 C           9.1590    0.2460   24.4070 C.3     1  UNL1        0.0879
@<TRIPOS>BOND
     1     2     1    1
     2     3     2   ar
     3     4     2   ar
     4     5     4   ar
     5     6     5   ar
     6     7     3   ar
     7     7     6   ar
     8     8     7   ar
     9     9     8   ar
    10    10     9   ar
    11    11    10   ar
    12    11     6   ar
    13    12    11    1
    14    13    12   am
    15    14    13    2
    16    15    13    1
    17    15    16    1
    18    17    16    1
    19    18    15    1
    20    19    18   ar
    21    20    19   ar
    22    21    20    1
    23    22    20   ar
    24    23    22   ar
    25    24    23   ar
    26    24    18   ar
    27    25    24    1
    28    26    25    1
    29    27    26    1
    30    27    15    1
