@<TRIPOS>MOLECULE
*****
 20 22 0 0 0
SMALL
GASTEIGER

@<TRIPOS>ATOM
      1 O           9.0350    0.8820   21.0560 O.2     1  UNL1       -0.2726
      2 C           8.4790   -0.1550   21.3970 C.2     1  UNL1        0.2500
      3 C           8.9680   -0.9700   22.5780 C.3     1  UNL1        0.1135
      4 C          10.4380   -0.7280   22.8220 C.ar    1  UNL1       -0.0122
      5 C          10.8620    0.1390   23.8190 C.ar    1  UNL1       -0.0037
      6 C          12.2020    0.4660   23.9540 C.ar    1  UNL1        0.0006
      7 C          13.1470   -0.0930   23.1060 C.ar    1  UNL1        0.0114
      8 C          11.3890   -1.3070   21.9880 C.ar    1  UNL1        0.0076
      9 C          12.7240   -0.9940   22.1520 C.ar    1  UNL1        0.0574
     10 CL         13.9110   -1.8270   21.1850 Cl      1  UNL1       -0.0823
     11 N           7.3930   -0.6500   20.7760 N.am    1  UNL1       -0.1777
     12 C           6.7070   -0.0060   19.7230 C.ar    1  UNL1        0.0882
     13 C           5.5860    0.7730   20.0400 C.ar    1  UNL1       -0.0078
     14 C           5.0230    1.1280   21.3890 C.3     1  UNL1        0.0278
     15 C           3.6840    1.7920   21.0580 C.3     1  UNL1        0.0094
     16 C           3.7220    2.1840   19.5780 C.3     1  UNL1        0.0280
     17 C           4.8730    1.3910   19.0160 C.ar    1  UNL1       -0.0057
     18 C           5.3290    1.2070   17.7290 C.ar    1  UNL1        0.0944
     19 N           6.4070    0.4860   17.3990 N.ar    1  UNL1       -0.2413
     20 C           7.0770   -0.1120   18.3870 C.ar    1  UNL1        0.1150
@<TRIPOS>BOND
     1     2     1    2
     2     3     2    1
     3     4     3    1
     4     5     4   ar
     5     6     5   ar
     6     7     6   ar
     7     8     4   ar
     8     9     8   ar
     9     9     7   ar
    10    10     9    1
    11    11     2   am
    12    12    11    1
    13    13    12   ar
    14    14    13    1
    15    15    14    1
    16    16    15    1
    17    17    16    1
    18    17    13   ar
    19    18    17   ar
    20    19    18   ar
    21    20    19   ar
    22    20    12   ar
