@<TRIPOS>MOLECULE
*****
 22 23 0 0 0
SMALL
GASTEIGER

@<TRIPOS>ATOM
      1 F          14.4440   -0.2990   22.8190 F       1  UNL1       -0.1644
      2 C          13.5490   -1.2750   22.8350 C.3     1  UNL1        0.4348
      3 F          14.0550   -2.2990   23.5240 F       1  UNL1       -0.1644
      4 F          13.4500   -1.6710   21.5630 F       1  UNL1       -0.1644
      5 C          12.2340   -0.8110   23.4000 C.ar    1  UNL1        0.1522
      6 C          12.1680    0.0680   24.4710 C.ar    1  UNL1        0.0231
      7 C          10.9190    0.4400   24.9360 C.ar    1  UNL1        0.0027
      8 C           9.7840   -0.0660   24.3210 C.ar    1  UNL1        0.0152
      9 N          11.1480   -1.3140   22.7930 N.ar    1  UNL1       -0.2452
     10 C           9.9410   -0.9400   23.2490 C.ar    1  UNL1        0.0681
     11 C           8.7600   -1.4790   22.4800 C.3     1  UNL1        0.1327
     12 C           8.3440   -0.5130   21.3900 C.2     1  UNL1        0.2516
     13 O           9.0060    0.4880   21.1250 O.2     1  UNL1       -0.2726
     14 N           7.1870   -0.8280   20.7770 N.am    1  UNL1       -0.1776
     15 C           6.5790   -0.0880   19.7400 C.ar    1  UNL1        0.0885
     16 C           5.4360    0.6790   20.0090 C.ar    1  UNL1       -0.0038
     17 C           4.8830    0.8310   21.4090 C.3     1  UNL1        0.0278
     18 C           4.5300    2.2560   21.7800 C.3     1  UNL1        0.0051
     19 C           7.0830   -0.1010   18.4420 C.ar    1  UNL1        0.1151
     20 N           6.5230    0.5700   17.4320 N.ar    1  UNL1       -0.2410
     21 C           5.4180    1.2770   17.6980 C.ar    1  UNL1        0.0987
     22 C           4.8480    1.3620   18.9500 C.ar    1  UNL1        0.0177
@<TRIPOS>BOND
     1     2     1    1
     2     3     2    1
     3     4     2    1
     4     5     2    1
     5     6     5   ar
     6     7     6   ar
     7     8     7   ar
     8     9     5   ar
     9    10     8   ar
    10    10     9   ar
    11    11    10    1
    12    12    11    1
    13    13    12    2
    14    14    12   am
    15    15    14    1
    16    16    15   ar
    17    17    16    1
    18    18    17    1
    19    19    15   ar
    20    20    19   ar
    21    21    20   ar
    22    22    21   ar
    23    22    16   ar
