@<TRIPOS>MOLECULE
*****
 18 19 0 0 0
SMALL
GASTEIGER

@<TRIPOS>ATOM
      1 C           7.5020   -2.5100   18.3050 C.3     1  UNL1        0.0101
      2 C           7.9100   -1.1150   18.7560 C.3     1  UNL1        0.0853
      3 C           6.7960   -0.1030   18.4880 C.2     1  UNL1        0.2257
      4 N           5.7720    0.1540   19.4660 N.am    1  UNL1       -0.2767
      5 C           5.7090   -0.4410   20.7650 C.3     1  UNL1        0.1107
      6 C           5.8360    0.6420   21.8490 C.3     1  UNL1        0.0942
      7 N           5.0480    1.7810   21.5820 N.3     1  UNL1       -0.2660
      8 C           5.0380    2.6610   22.4860 C.3     1  UNL1        0.0992
      9 C           6.3300    3.4710   22.7020 C.ar    1  UNL1       -0.0060
     10 C           7.2900    3.0720   23.6310 C.ar    1  UNL1       -0.0006
     11 C           8.4240    3.8410   23.8540 C.ar    1  UNL1        0.0294
     12 C           6.4840    4.6930   22.0660 C.ar    1  UNL1       -0.0006
     13 C           7.6150    5.4610   22.2970 C.ar    1  UNL1        0.0294
     14 C           8.5580    5.0650   23.2210 C.ar    1  UNL1        0.1401
     15 F           9.6510    5.8540   23.4230 F       1  UNL1       -0.2042
     16 C           4.8670    2.2610   20.2660 C.3     1  UNL1        0.0942
     17 C           4.7470    1.1250   19.2440 C.3     1  UNL1        0.1107
     18 O           6.7480    0.4880   17.4710 O.2     1  UNL1       -0.2749
@<TRIPOS>BOND
     1     2     1    1
     2     3     2    1
     3     4     3   am
     4     5     4    1
     5     6     5    1
     6     7     6    1
     7     8     7    1
     8     9     8    1
     9    10     9   ar
    10    11    10   ar
    11    12     9   ar
    12    13    12   ar
    13    14    11   ar
    14    14    13   ar
    15    15    14    1
    16    16     7    1
    17    17    16    1
    18    17     4    1
    19    18     3    2
