@<TRIPOS>MOLECULE
*****
 20 22 0 0 0
SMALL
GASTEIGER

@<TRIPOS>ATOM
      1 CL         14.0070   -2.7000   23.7410 Cl      1  UNL1       -0.0822
      2 C          12.9370   -1.3720   23.3940 C.ar    1  UNL1        0.0589
      3 C          13.4000   -0.0830   23.5470 C.ar    1  UNL1        0.0115
      4 C          12.5190    0.9700   23.3810 C.ar    1  UNL1        0.0021
      5 C          11.1980    0.7330   23.0450 C.ar    1  UNL1        0.0150
      6 C          11.6380   -1.6420   23.0040 C.ar    1  UNL1        0.0263
      7 C          10.7610   -0.5740   22.8240 C.ar    1  UNL1        0.0562
      8 N           9.4690   -0.7820   22.2610 N.am    1  UNL1       -0.2411
      9 C           8.6350   -1.9450   22.5970 C.3     1  UNL1        0.1216
     10 C           7.3710   -1.7290   21.7910 C.3     1  UNL1        0.1217
     11 C           8.8630    0.0620   21.3550 C.2     1  UNL1        0.3148
     12 O           9.3130    1.1070   20.9330 O.2     1  UNL1       -0.2517
     13 N           7.6410   -0.4920   21.0410 N.am    1  UNL1       -0.2399
     14 C           6.7630    0.0180   20.0270 C.ar    1  UNL1        0.0705
     15 C           5.5950    0.7220   20.3210 C.ar    1  UNL1       -0.0050
     16 C           5.0860    0.8890   21.7310 C.3     1  UNL1        0.0324
     17 C           7.1780   -0.0780   18.7010 C.ar    1  UNL1        0.1134
     18 N           6.5250    0.4820   17.6790 N.ar    1  UNL1       -0.2410
     19 C           5.4050    1.1550   17.9680 C.ar    1  UNL1        0.0987
     20 C           4.9120    1.2960   19.2520 C.ar    1  UNL1        0.0177
@<TRIPOS>BOND
     1     2     1    1
     2     3     2   ar
     3     4     3   ar
     4     5     4   ar
     5     6     2   ar
     6     7     6   ar
     7     7     5   ar
     8     8     7    1
     9     9     8    1
    10    10     9    1
    11    11     8   am
    12    12    11    2
    13    13    11   am
    14    13    10    1
    15    14    13    1
    16    15    14   ar
    17    16    15    1
    18    17    14   ar
    19    18    17   ar
    20    19    18   ar
    21    20    19   ar
    22    20    15   ar
