@<TRIPOS>MOLECULE
*****
 22 24 0 0 0
SMALL
GASTEIGER

@<TRIPOS>ATOM
      1 O           5.7430   -4.5430   19.8640 O.2     1  UNL1       -0.2699
      2 C           6.5000   -3.9020   20.5790 C.2     1  UNL1        0.2804
      3 N           6.1330   -3.0170   21.5360 N.am    1  UNL1       -0.1768
      4 C           8.0170   -3.9700   20.5090 C.3     1  UNL1        0.2529
      5 O           8.4240   -5.2000   21.0890 O.3     1  UNL1       -0.2082
      6 C           8.3920   -2.8900   21.5010 C.ar    1  UNL1        0.0322
      7 C           7.2300   -2.4090   22.1000 C.ar    1  UNL1        0.0785
      8 C           9.6270   -2.3740   21.8760 C.ar    1  UNL1       -0.0000
      9 C           9.7020   -1.4040   22.8620 C.ar    1  UNL1        0.0001
     10 C           8.5490   -0.9300   23.4690 C.ar    1  UNL1        0.0077
     11 C           7.2950   -1.4140   23.0940 C.ar    1  UNL1        0.0907
     12 C           6.0980   -0.8380   23.7620 C.2     1  UNL1        0.3428
     13 O           4.9860   -1.2920   23.6790 O.2     1  UNL1       -0.2448
     14 O           6.4130    0.2270   24.5060 O.3     1  UNL1       -0.4404
     15 C           5.4810    0.5660   25.5750 C.3     1  UNL1        0.2354
     16 C           6.3020    0.8640   26.7960 C.ar    1  UNL1        0.0210
     17 C           5.8460    1.7520   27.7650 C.ar    1  UNL1       -0.0049
     18 C           7.5680    0.3120   26.9400 C.ar    1  UNL1       -0.0007
     19 C           8.3640    0.6500   28.0210 C.ar    1  UNL1       -0.0005
     20 C           7.9000    1.5510   28.9640 C.ar    1  UNL1       -0.0043
     21 C           6.6390    2.1220   28.8450 C.ar    1  UNL1       -0.0220
     22 C           6.1700    3.1710   29.8230 C.3     1  UNL1        0.0310
@<TRIPOS>BOND
     1     2     1    2
     2     3     2   am
     3     4     2    1
     4     4     5    1
     5     6     4    1
     6     7     6   ar
     7     7     3    1
     8     8     6   ar
     9     9     8   ar
    10    10     9   ar
    11    11    10   ar
    12    11     7   ar
    13    12    11    1
    14    13    12    2
    15    14    12    1
    16    15    14    1
    17    16    15    1
    18    17    16   ar
    19    18    16   ar
    20    19    18   ar
    21    20    19   ar
    22    21    20   ar
    23    21    17   ar
    24    22    21    1
