@<TRIPOS>MOLECULE
*****
 17 19 0 0 0
SMALL
GASTEIGER

@<TRIPOS>ATOM
      1 N           6.6870    0.3030   17.7980 N.ar    1  UNL1       -0.2410
      2 C           5.8760    0.6940   20.4590 C.ar    1  UNL1       -0.0034
      3 C          13.8660   -1.7210   23.7130 C.3     1  UNL1        0.0000
      4 C          11.2940   -0.0520   22.6490 C.3     1  UNL1        0.0091
      5 C           5.0920    1.1170   19.3910 C.ar    1  UNL1        0.0177
      6 C           9.0350    0.2510   21.5880 C.2     1  UNL1        0.2456
      7 C           7.0860    0.0380   20.1540 C.ar    1  UNL1        0.0885
      8 C           7.4420   -0.1250   18.8140 C.ar    1  UNL1        0.1151
      9 C          11.9990    0.0590   24.0030 C.3     1  UNL1        0.0005
     10 C          12.6100   -2.0480   22.9700 C.3     1  UNL1        0.0000
     11 C          12.1420   -1.0730   21.8880 C.3     1  UNL1        0.0005
     12 C          12.5260   -1.3520   24.2640 C.3     1  UNL1        0.0000
     13 C           5.4570    0.9790   21.8810 C.3     1  UNL1        0.0325
     14 N           7.9280   -0.4080   21.2000 N.am    1  UNL1       -0.1780
     15 O           9.4110    1.2990   21.0780 O.2     1  UNL1       -0.2730
     16 C           9.8060   -0.4030   22.7200 C.3     1  UNL1        0.0872
     17 C           5.5280    0.9040   18.0980 C.ar    1  UNL1        0.0987
@<TRIPOS>BOND
     1     5     2   ar
     2     7     2   ar
     3     8     7   ar
     4     8     1   ar
     5     9     4    1
     6    10     3    1
     7    11    10    1
     8    11     4    1
     9    12    10    1
    10    12     9    1
    11    12     3    1
    12    13     2    1
    13    14     7    1
    14    14     6   am
    15    15     6    2
    16    16     6    1
    17     4    16    1
    18    17     5   ar
    19    17     1   ar
