@<TRIPOS>MOLECULE
*****
 18 19 0 0 0
SMALL
GASTEIGER

@<TRIPOS>ATOM
      1 N           6.9530   -4.3340   21.9370 N.am    1  UNL1       -0.1792
      2 C           7.8730   -4.7850   19.8560 C.3     1  UNL1        0.0968
      3 O           5.5600   -4.2570   20.1400 O.2     1  UNL1       -0.2730
      4 C           6.6560   -4.4270   20.6430 C.2     1  UNL1        0.2461
      5 C           0.5610   -4.8200   24.0790 C.3     1  UNL1        0.0791
      6 C           0.0040   -7.2960   24.9330 C.3     1  UNL1        0.0791
      7 C           1.1510   -7.7370   24.0520 C.3     1  UNL1        0.1054
      8 C           6.0760   -4.4750   23.0240 C.ar    1  UNL1        0.0735
      9 C           6.0680   -3.4650   23.9780 C.ar    1  UNL1        0.0166
     10 C           5.2050   -3.5520   25.0480 C.ar    1  UNL1        0.0015
     11 C           4.3530   -4.6360   25.1720 C.ar    1  UNL1        0.0046
     12 C           4.3560   -5.6510   24.2220 C.ar    1  UNL1        0.0549
     13 C           5.2160   -5.5640   23.1270 C.ar    1  UNL1        0.0211
     14 C           3.4250   -6.8220   24.3440 C.2     1  UNL1        0.2491
     15 C           1.6520   -5.4710   23.2590 C.3     1  UNL1        0.1054
     16 N           2.1580   -6.6760   23.9290 N.am    1  UNL1       -0.2743
     17 O           3.8560   -7.8800   24.7990 O.2     1  UNL1       -0.2699
     18 S          -0.8800   -5.8800   24.2620 S.3     1  UNL1       -0.1366
@<TRIPOS>BOND
     1     4     3    2
     2     4     2    1
     3     4     1   am
     4     7     6    1
     5     8     1    1
     6     9     8   ar
     7    10     9   ar
     8    11    10   ar
     9    12    11   ar
    10    13    12   ar
    11    13     8   ar
    12    14    12    1
    13    15     5    1
    14    16    15    1
    15    16    14   am
    16    16     7    1
    17    17    14    2
    18    18     6    1
    19    18     5    1
