@<TRIPOS>MOLECULE
*****
 10 10 0 0 0
SMALL
GASTEIGER

@<TRIPOS>ATOM
      1 N          22.9560  -20.3510   23.2600 N.3     1  UNL1       -0.2115
      2 C          23.9150  -18.1370   23.9680 C.3     1  UNL1        0.0203
      3 C          23.0350  -18.8760   22.9500 C.3     1  UNL1        0.0892
      4 C          21.7090  -20.6840   24.0230 C.3     1  UNL1        0.1376
      5 C          21.2880  -22.0960   23.8330 C.ar    1  UNL1        0.1183
      6 C          21.3220  -23.1910   24.7040 C.ar    1  UNL1        0.1147
      7 C          20.4920  -25.6180   24.4200 C.3     1  UNL1        0.1555
      8 N          20.7110  -24.2260   23.9870 N.ar    1  UNL1       -0.2285
      9 N          20.3410  -23.7540   22.7570 N.ar    1  UNL1       -0.0640
     10 N          20.6790  -22.5250   22.6590 N.ar    1  UNL1       -0.1317
@<TRIPOS>BOND
     1     3     2    1
     2     3     1    1
     3     4     1    1
     4     5     4    1
     5     6     5   ar
     6     8     7    1
     7     8     6   ar
     8     9     8   ar
     9    10     9   ar
    10    10     5   ar
