@<TRIPOS>MOLECULE
*****
 17 18 0 0 0
SMALL
GASTEIGER

@<TRIPOS>ATOM
      1 O           6.9070   -0.0830   17.7750 O.2     1  UNL1       -0.2411
      2 C           6.1820    0.5030   18.5580 C.ar    1  UNL1        0.3874
      3 N           5.2310    1.4250   18.3310 N.ar    1  UNL1       -0.0867
      4 N           4.6770    1.9160   19.4930 N.ar    1  UNL1       -0.1209
      5 C           5.2930    1.2790   20.4350 C.ar    1  UNL1        0.2250
      6 N           6.2080    0.4090   19.9290 N.ar    1  UNL1       -0.1614
      7 N           7.0080   -0.4610   20.6500 N.am    1  UNL1       -0.0908
      8 C           8.1710   -0.0250   21.1760 C.2     1  UNL1        0.2659
      9 O           8.7500    0.9930   20.8010 O.2     1  UNL1       -0.2712
     10 C           8.7070   -0.8610   22.3210 C.3     1  UNL1        0.1150
     11 C          10.1360   -0.5040   22.6680 C.ar    1  UNL1       -0.0121
     12 C          11.1880   -1.2320   22.1200 C.ar    1  UNL1        0.0076
     13 C          12.4890   -0.8150   22.3290 C.ar    1  UNL1        0.0574
     14 CL         13.7900   -1.7190   21.5990 Cl      1  UNL1       -0.0823
     15 C          10.4260    0.6000   23.4620 C.ar    1  UNL1       -0.0037
     16 C          11.7390    1.0020   23.6660 C.ar    1  UNL1        0.0006
     17 C          12.7830    0.3000   23.0850 C.ar    1  UNL1        0.0114
@<TRIPOS>BOND
     1     2     1    2
     2     3     2   ar
     3     4     3   ar
     4     5     4   ar
     5     6     5   ar
     6     6     2   ar
     7     7     6    1
     8     8     7   am
     9     9     8    2
    10    10     8    1
    11    11    10    1
    12    12    11   ar
    13    13    12   ar
    14    14    13    1
    15    15    11   ar
    16    16    15   ar
    17    17    16   ar
    18    17    13   ar
