@<TRIPOS>MOLECULE
*****
 25 26 0 0 0
SMALL
GASTEIGER

@<TRIPOS>ATOM
      1 N           7.3330   -1.7380   21.4540 N.pl3   1  UNL1       -0.2255
      2 C           8.1230   -0.6970   20.7460 C.3     1  UNL1        0.1935
      3 C           7.1730   -0.0690   19.7430 C.ar    1  UNL1        0.0253
      4 C           6.0070    0.5490   20.1580 C.ar    1  UNL1        0.0010
      5 C           5.1740    1.1480   19.2350 C.ar    1  UNL1        0.0204
      6 C           5.5440    1.1180   17.9110 C.ar    1  UNL1        0.0989
      7 N           6.6690    0.5500   17.4770 N.ar    1  UNL1       -0.2426
      8 C           7.4510   -0.0340   18.3870 C.ar    1  UNL1        0.0967
      9 C           8.8240    0.3720   21.6020 C.2     1  UNL1        0.2653
     10 O           9.6770    1.1070   21.1210 O.2     1  UNL1       -0.2711
     11 N           8.3810    0.4550   22.8630 N.am    1  UNL1       -0.2071
     12 C           8.9640    1.2990   23.9290 C.3     1  UNL1        0.0788
     13 C           8.1600    1.0810   25.2030 C.3     1  UNL1        0.0217
     14 C          10.4140    0.8860   24.1430 C.3     1  UNL1        0.0217
     15 C           8.8800    2.7580   23.4960 C.3     1  UNL1        0.0217
     16 C           7.9460   -2.7260   22.2920 C.ar    1  UNL1        0.0662
     17 C           7.1660   -3.6790   22.9380 C.ar    1  UNL1        0.0158
     18 C           7.7460   -4.5670   23.8290 C.ar    1  UNL1       -0.0029
     19 C           9.1060   -4.5150   24.1130 C.ar    1  UNL1       -0.0210
     20 C           9.8800   -3.5810   23.4390 C.ar    1  UNL1       -0.0029
     21 C           9.3170   -2.7040   22.5300 C.ar    1  UNL1        0.0158
     22 C           9.7120   -5.3950   25.1850 C.3     1  UNL1        0.0425
     23 C           9.3010   -4.8740   26.5740 C.3     1  UNL1        0.1101
     24 C           8.0760   -5.5020   27.0740 C.1     1  UNL1        0.0735
     25 N           7.1330   -6.0290   27.4470 N.1     1  UNL1       -0.1959
@<TRIPOS>BOND
     1     2     1    1
     2     3     2    1
     3     4     3   ar
     4     5     4   ar
     5     6     5   ar
     6     7     6   ar
     7     8     7   ar
     8     8     3   ar
     9     9     2    1
    10    10     9    2
    11    11     9   am
    12    12    11    1
    13    12    13    1
    14    14    12    1
    15    15    12    1
    16    16     1    1
    17    17    16   ar
    18    18    17   ar
    19    19    18   ar
    20    20    19   ar
    21    21    20   ar
    22    21    16   ar
    23    22    19    1
    24    23    22    1
    25    24    23    1
    26    25    24    3
