@<TRIPOS>MOLECULE
*****
 24 27 0 0 0
SMALL
GASTEIGER

@<TRIPOS>ATOM
      1 O           9.0820    0.6770   21.1750 O.2     1  UNL1       -0.2726
      2 C           8.5500   -0.3960   21.4480 C.2     1  UNL1        0.2493
      3 C           9.0120   -1.2570   22.6250 C.3     1  UNL1        0.1038
      4 C           8.0710   -0.9860   23.8480 C.3     1  UNL1        0.0369
      5 C           8.7860   -0.4190   25.0670 C.3     1  UNL1        0.1130
      6 N           9.8290    0.5240   24.6760 N.pl3   1  UNL1       -0.2379
      7 C          10.4660   -0.8840   22.8460 C.ar    1  UNL1        0.0020
      8 C          10.7870    0.0810   23.8100 C.ar    1  UNL1        0.0618
      9 C          12.0960    0.5540   23.9110 C.ar    1  UNL1        0.0166
     10 C          13.0870    0.0480   23.0880 C.ar    1  UNL1        0.0127
     11 C          11.4790   -1.4100   22.0480 C.ar    1  UNL1        0.0089
     12 C          12.7700   -0.9490   22.1900 C.ar    1  UNL1        0.0575
     13 CL         14.0420   -1.7050   21.2670 Cl      1  UNL1       -0.0823
     14 N           7.4860   -0.8880   20.7760 N.am    1  UNL1       -0.1774
     15 C           6.7330   -0.2390   19.7820 C.ar    1  UNL1        0.0925
     16 C           5.6100    0.5420   20.1900 C.ar    1  UNL1        0.0184
     17 C           5.1450    0.6180   21.5280 C.ar    1  UNL1        0.0014
     18 C           4.0570    1.3790   21.8510 C.ar    1  UNL1        0.0000
     19 C           3.3770    2.0900   20.8750 C.ar    1  UNL1        0.0001
     20 C           3.7880    2.0560   19.5750 C.ar    1  UNL1        0.0016
     21 C           4.9150    1.2860   19.1960 C.ar    1  UNL1        0.0204
     22 C           5.3940    1.2110   17.8660 C.ar    1  UNL1        0.0989
     23 N           6.4390    0.4830   17.4880 N.ar    1  UNL1       -0.2410
     24 C           7.0700   -0.2250   18.4300 C.ar    1  UNL1        0.1154
@<TRIPOS>BOND
     1     2     1    2
     2     3     2    1
     3     4     3    1
     4     5     4    1
     5     6     5    1
     6     7     3    1
     7     8     7   ar
     8     8     6    1
     9     9     8   ar
    10    10     9   ar
    11    11     7   ar
    12    12    11   ar
    13    12    10   ar
    14    13    12    1
    15    14     2   am
    16    15    14    1
    17    16    15   ar
    18    17    16   ar
    19    18    17   ar
    20    19    18   ar
    21    20    19   ar
    22    21    20   ar
    23    21    16   ar
    24    22    21   ar
    25    23    22   ar
    26    24    23   ar
    27    24    15   ar
