@<TRIPOS>MOLECULE
*****
 27 29 0 0 0
SMALL
GASTEIGER

@<TRIPOS>ATOM
      1 CL         13.6090   -1.8010   22.5540 Cl      1  UNL1       -0.0814
      2 C          12.2950   -0.7780   23.0230 C.ar    1  UNL1        0.0680
      3 C          12.5280    0.3930   23.7290 C.ar    1  UNL1        0.0682
      4 CL         14.1380    0.8680   24.1660 Cl      1  UNL1       -0.0814
      5 C          11.4630    1.1930   24.1060 C.ar    1  UNL1        0.0120
      6 C          10.1720    0.8160   23.7840 C.ar    1  UNL1       -0.0005
      7 C          11.0000   -1.1480   22.6980 C.ar    1  UNL1        0.0108
      8 C           9.9230   -0.3550   23.0820 C.ar    1  UNL1        0.0143
      9 C           8.5020   -0.7800   22.7870 C.3     1  UNL1        0.2153
     10 O           8.4700   -2.1640   22.4390 O.3     1  UNL1       -0.3400
     11 C           7.6670   -2.9520   23.3230 C.3     1  UNL1        0.1751
     12 C           7.3040   -4.2500   22.6740 C.3     1  UNL1        0.1742
     13 O           6.2750   -4.9050   23.3900 O.3     1  UNL1       -0.3484
     14 C           5.7710   -6.0470   22.7000 C.3     1  UNL1        0.1742
     15 C           7.8610    0.1040   21.7150 C.2     1  UNL1        0.2771
     16 O           7.8680    1.3250   21.8440 O.2     1  UNL1       -0.2700
     17 N           7.3890   -0.5400   20.6220 N.am    1  UNL1       -0.1753
     18 C           6.4200   -0.1560   19.6650 C.ar    1  UNL1        0.0925
     19 C           5.3510    0.7440   19.9940 C.ar    1  UNL1        0.0184
     20 C           4.8120    0.8880   21.3020 C.ar    1  UNL1        0.0014
     21 C           3.7060    1.6580   21.5290 C.ar    1  UNL1        0.0000
     22 C           3.0800    2.3240   20.4870 C.ar    1  UNL1        0.0001
     23 C           3.5490    2.2120   19.2090 C.ar    1  UNL1        0.0016
     24 C           4.6830    1.4110   18.9240 C.ar    1  UNL1        0.0204
     25 C           5.1120    1.1350   17.6060 C.ar    1  UNL1        0.0989
     26 N           6.0570    0.2650   17.3000 N.ar    1  UNL1       -0.2410
     27 C           6.6690   -0.3620   18.3100 C.ar    1  UNL1        0.1154
@<TRIPOS>BOND
     1     2     1    1
     2     3     2   ar
     3     4     3    1
     4     5     3   ar
     5     6     5   ar
     6     7     2   ar
     7     8     6   ar
     8     8     7   ar
     9     9     8    1
    10     9    10    1
    11    11    10    1
    12    12    11    1
    13    13    12    1
    14    14    13    1
    15    15     9    1
    16    16    15    2
    17    17    15   am
    18    18    17    1
    19    19    18   ar
    20    20    19   ar
    21    21    20   ar
    22    22    21   ar
    23    23    22   ar
    24    24    23   ar
    25    24    19   ar
    26    25    24   ar
    27    26    25   ar
    28    27    26   ar
    29    27    18   ar
