@<TRIPOS>MOLECULE
*****
 27 31 0 0 0
SMALL
GASTEIGER

@<TRIPOS>ATOM
      1 O           9.1840    1.4710   21.1570 O.2     1  UNL1       -0.2719
      2 C           8.8480    0.4150   21.6560 C.2     1  UNL1        0.2583
      3 C           9.4010   -0.1960   22.9640 C.3     1  UNL1        0.1741
      4 C           8.7450    0.5900   24.1220 C.3     1  UNL1        0.0806
      5 C           9.7010    0.8420   25.2690 C.3     1  UNL1        0.2080
      6 O          10.8960    1.4880   24.8130 O.3     1  UNL1       -0.4756
      7 C          10.9230   -0.1250   22.9950 C.ar    1  UNL1        0.0388
      8 C          11.5710    0.7620   23.8650 C.ar    1  UNL1        0.1366
      9 C          12.9420    0.9540   23.8270 C.ar    1  UNL1        0.0375
     10 C          13.6980    0.2540   22.9080 C.ar    1  UNL1        0.0145
     11 C          11.7080   -0.8590   22.1060 C.ar    1  UNL1        0.0122
     12 C          13.0760   -0.6390   22.0640 C.ar    1  UNL1        0.0576
     13 CL         14.0260   -1.4650   20.8610 Cl      1  UNL1       -0.0823
     14 N           7.9180   -0.4950   21.1530 N.am    1  UNL1       -0.1880
     15 C           7.9280   -1.6870   21.8890 C.2     1  UNL1        0.3335
     16 O           7.1970   -2.6470   21.6950 O.2     1  UNL1       -0.2500
     17 N           8.8510   -1.5450   22.8720 N.am    1  UNL1       -0.1779
     18 C           6.9790   -0.1850   20.0980 C.ar    1  UNL1        0.0813
     19 C           5.7970    0.5530   20.4140 C.ar    1  UNL1        0.0172
     20 C           5.3070    0.7530   21.7320 C.ar    1  UNL1        0.0013
     21 C           4.1850    1.4970   21.9600 C.ar    1  UNL1        0.0000
     22 C           3.4930    2.0770   20.9050 C.ar    1  UNL1        0.0001
     23 C           3.9150    1.9060   19.6180 C.ar    1  UNL1        0.0016
     24 C           5.0750    1.1400   19.3360 C.ar    1  UNL1        0.0204
     25 C           5.5710    0.9410   18.0220 C.ar    1  UNL1        0.0989
     26 N           6.6750    0.2640   17.7390 N.ar    1  UNL1       -0.2410
     27 C           7.3490   -0.2790   18.7620 C.ar    1  UNL1        0.1142
@<TRIPOS>BOND
     1     2     1    2
     2     3     2    1
     3     3     4    1
     4     5     4    1
     5     6     5    1
     6     7     3    1
     7     8     6    1
     8     8     7   ar
     9     9     8   ar
    10    10     9   ar
    11    11     7   ar
    12    12    11   ar
    13    12    10   ar
    14    13    12    1
    15    14     2   am
    16    15    14   am
    17    16    15    2
    18    17    15   am
    19    17     3    1
    20    18    14    1
    21    19    18   ar
    22    20    19   ar
    23    21    20   ar
    24    22    21   ar
    25    23    22   ar
    26    24    23   ar
    27    24    19   ar
    28    25    24   ar
    29    26    25   ar
    30    27    26   ar
    31    27    18   ar
