@<TRIPOS>MOLECULE
*****
 16 17 0 0 0
SMALL
GASTEIGER

@<TRIPOS>ATOM
      1 N           6.8940   -2.7950   20.9160 N.am    1  UNL1       -0.2767
      2 C           7.1720   -2.5880   18.4730 C.3     1  UNL1        0.0948
      3 O           5.8000   -4.2080   19.5540 O.2     1  UNL1       -0.2749
      4 C           6.5580   -3.2520   19.6910 C.2     1  UNL1        0.2262
      5 C           7.7310   -1.6310   21.2090 C.3     1  UNL1        0.1107
      6 C           6.4590   -3.4550   22.1440 C.3     1  UNL1        0.1107
      7 C           7.6690   -3.8700   22.9450 C.3     1  UNL1        0.0942
      8 C           9.6630   -3.1140   24.0920 C.3     1  UNL1        0.1058
      9 C           9.3660   -4.1970   25.0840 C.ar    1  UNL1        0.0243
     10 C           9.8010   -5.5170   25.0480 C.ar    1  UNL1        0.0049
     11 C           9.5330   -6.2170   26.2460 C.ar    1  UNL1        0.0182
     12 C           8.6370   -5.5180   27.0390 C.ar    1  UNL1        0.0867
     13 C           8.9170   -2.0370   22.0550 C.3     1  UNL1        0.0942
     14 N           8.4960   -2.7100   23.2900 N.3     1  UNL1       -0.2656
     15 S           8.3730   -3.9190   26.4730 S.2     1  UNL1       -0.0785
     16 CL          7.8110   -6.0970   28.4280 Cl      1  UNL1       -0.0752
@<TRIPOS>BOND
     1     4     3    2
     2     4     2    1
     3     4     1   am
     4     5     1    1
     5     6     1    1
     6     7     6    1
     7     9     8    1
     8    10     9   ar
     9    11    10   ar
    10    12    11   ar
    11    13     5    1
    12    14    13    1
    13    14     8    1
    14    14     7    1
    15    15    12   ar
    16    15     9   ar
    17    16    12    1
