@<TRIPOS>MOLECULE
*****
 22 24 0 0 0
SMALL
GASTEIGER

@<TRIPOS>ATOM
      1 N          14.5360   -1.7700   20.5470 N.1     1  UNL1       -0.1908
      2 C          13.7650   -1.3490   21.2780 C.1     1  UNL1        0.1004
      3 C          12.8140   -0.7840   22.2040 C.ar    1  UNL1        0.0681
      4 C          13.2460    0.0780   23.2080 C.ar    1  UNL1        0.0103
      5 C          12.3150    0.7570   23.9750 C.ar    1  UNL1        0.0004
      6 C          10.9590    0.5670   23.7530 C.ar    1  UNL1       -0.0037
      7 C          11.4500   -0.9990   22.0080 C.ar    1  UNL1        0.0065
      8 C          10.5130   -0.3140   22.7740 C.ar    1  UNL1       -0.0124
      9 C           9.0370   -0.5290   22.5370 C.3     1  UNL1        0.1135
     10 C           8.4950    0.2580   21.3610 C.2     1  UNL1        0.2500
     11 O           9.0230    1.2980   20.9710 O.2     1  UNL1       -0.2726
     12 N           7.3810   -0.2710   20.8140 N.am    1  UNL1       -0.1773
     13 C           6.5930    0.2490   19.7710 C.ar    1  UNL1        0.0925
     14 C           5.4890    1.0920   20.1060 C.ar    1  UNL1        0.0184
     15 C           5.1390    1.4460   21.4360 C.ar    1  UNL1        0.0014
     16 C           4.0600    2.2460   21.6890 C.ar    1  UNL1        0.0000
     17 C           3.2790    2.7330   20.6470 C.ar    1  UNL1        0.0001
     18 C           3.5800    2.4260   19.3490 C.ar    1  UNL1        0.0016
     19 C           4.6940    1.6020   19.0430 C.ar    1  UNL1        0.0204
     20 C           5.0590    1.2510   17.7250 C.ar    1  UNL1        0.0989
     21 N           6.0920    0.4850   17.4150 N.ar    1  UNL1       -0.2410
     22 C           6.8280    0.0000   18.4190 C.ar    1  UNL1        0.1154
@<TRIPOS>BOND
     1     2     1    3
     2     3     2    1
     3     4     3   ar
     4     5     4   ar
     5     6     5   ar
     6     7     3   ar
     7     8     7   ar
     8     8     6   ar
     9     9     8    1
    10    10     9    1
    11    11    10    2
    12    12    10   am
    13    13    12    1
    14    14    13   ar
    15    15    14   ar
    16    16    15   ar
    17    17    16   ar
    18    18    17   ar
    19    19    18   ar
    20    19    14   ar
    21    20    19   ar
    22    21    20   ar
    23    22    21   ar
    24    22    13   ar
