@<TRIPOS>MOLECULE
*****
 25 28 0 0 0
SMALL
GASTEIGER

@<TRIPOS>ATOM
      1 CL         14.2690   -1.4010   20.9060 Cl      1  UNL1       -0.0823
      2 C          13.1630   -0.6280   22.0050 C.ar    1  UNL1        0.0576
      3 C          13.6400    0.3070   22.8980 C.ar    1  UNL1        0.0145
      4 C          12.7650    0.8790   23.8050 C.ar    1  UNL1        0.0374
      5 C          11.8290   -0.9790   21.9640 C.ar    1  UNL1        0.0106
      6 C          10.9290   -0.3880   22.8470 C.ar    1  UNL1        0.0212
      7 C          11.4220    0.5280   23.7790 C.ar    1  UNL1        0.1350
      8 O          10.6360    1.0940   24.7570 O.3     1  UNL1       -0.4757
      9 C           9.2170    1.0880   24.5060 C.3     1  UNL1        0.2062
     10 C           8.7290   -0.2680   24.0670 C.3     1  UNL1        0.0610
     11 C           9.4440   -0.6830   22.7710 C.3     1  UNL1        0.1074
     12 C           8.8630    0.0720   21.5740 C.2     1  UNL1        0.2495
     13 O           9.3960    1.0770   21.1110 O.2     1  UNL1       -0.2726
     14 N           7.6490   -0.3560   21.1850 N.am    1  UNL1       -0.1758
     15 C           6.8600   -0.1140   20.0490 C.ar    1  UNL1        0.1098
     16 C           7.3490   -0.0270   18.7470 C.ar    1  UNL1        0.1170
     17 N           6.6620    0.4760   17.7140 N.ar    1  UNL1       -0.2393
     18 C           5.4350    0.9550   17.9510 C.ar    1  UNL1        0.1196
     19 C           5.5670    0.3740   20.2780 C.ar    1  UNL1        0.1000
     20 N           4.8670    0.7230   21.4450 N.ar    1  UNL1       -0.2752
     21 C           5.2200    0.4060   22.8250 C.3     1  UNL1        0.1352
     22 C           4.8690    0.9450   19.2190 C.ar    1  UNL1        0.1222
     23 N           3.7590    1.5880   19.7500 N.ar    1  UNL1       -0.1892
     24 C           3.7470    1.4640   21.1100 C.ar    1  UNL1        0.3503
     25 O           2.9230    1.9120   21.8940 O.2     1  UNL1       -0.2444
@<TRIPOS>BOND
     1     2     1    1
     2     3     2   ar
     3     4     3   ar
     4     5     2   ar
     5     6     5   ar
     6     7     6   ar
     7     7     4   ar
     8     8     7    1
     9     9     8    1
    10    10     9    1
    11    11    10    1
    12    11     6    1
    13    11    12    1
    14    13    12    2
    15    14    12   am
    16    15    14    1
    17    16    15   ar
    18    17    16   ar
    19    18    17   ar
    20    19    15   ar
    21    20    19   ar
    22    21    20    1
    23    22    18   ar
    24    22    19   ar
    25    23    22   ar
    26    24    23   ar
    27    24    20   ar
    28    25    24    2
