@<TRIPOS>MOLECULE
*****
 17 18 0 0 0
SMALL
GASTEIGER

@<TRIPOS>ATOM
      1 N          11.8050    0.8720   23.7560 N.1     1  UNL1       -0.1954
      2 C          10.9910    0.1760   23.3740 C.1     1  UNL1        0.0826
      3 C           9.9160   -0.6580   22.8100 C.3     1  UNL1        0.1788
      4 C          10.5360   -1.9790   22.3400 C.3     1  UNL1        0.1650
      5 O          10.5050   -2.8150   23.4920 O.3     1  UNL1       -0.3521
      6 C           9.2440   -2.5680   24.1150 C.3     1  UNL1        0.1438
      7 C           8.9600   -1.0850   23.9560 C.3     1  UNL1        0.0576
      8 C           9.3050    0.1650   21.6590 C.2     1  UNL1        0.2605
      9 O          10.0260    0.9050   21.0150 O.2     1  UNL1       -0.2718
     10 N           7.9720    0.1800   21.5480 N.am    1  UNL1       -0.1770
     11 C           7.1830    0.3410   20.3850 C.ar    1  UNL1        0.0885
     12 C           5.8270    0.6570   20.5370 C.ar    1  UNL1       -0.0034
     13 C           5.2140    0.8940   21.8930 C.3     1  UNL1        0.0325
     14 C           7.6800    0.1550   19.0900 C.ar    1  UNL1        0.1151
     15 N           6.9530    0.3300   17.9820 N.ar    1  UNL1       -0.2410
     16 C           5.6780    0.6970   18.1420 C.ar    1  UNL1        0.0987
     17 C           5.0810    0.8560   19.3780 C.ar    1  UNL1        0.0177
@<TRIPOS>BOND
     1     2     1    3
     2     3     2    1
     3     4     3    1
     4     5     4    1
     5     6     5    1
     6     7     6    1
     7     7     3    1
     8     8     3    1
     9     9     8    2
    10    10     8   am
    11    11    10    1
    12    12    11   ar
    13    13    12    1
    14    14    11   ar
    15    15    14   ar
    16    16    15   ar
    17    17    16   ar
    18    17    12   ar
