@<TRIPOS>MOLECULE
*****
 16 17 0 0 0
SMALL
GASTEIGER

@<TRIPOS>ATOM
      1 C           8.9620    0.2240   21.7200 C.2     1  UNL1        0.2456
      2 C           9.5140   -0.2640   23.0540 C.3     1  UNL1        0.0872
      3 C          11.0320   -0.1730   23.1190 C.3     1  UNL1        0.0091
      4 C          11.6820   -1.1180   22.1100 C.3     1  UNL1        0.0005
      5 C          12.9270   -1.8160   22.6520 C.3     1  UNL1        0.0000
      6 C          13.7410   -0.9860   23.6350 C.3     1  UNL1        0.0000
      7 C          12.9140   -0.2780   24.7030 C.3     1  UNL1        0.0000
      8 C          11.4160   -0.5000   24.5520 C.3     1  UNL1        0.0005
      9 C           7.0890    0.1080   20.1160 C.ar    1  UNL1        0.0925
     10 C           5.8360    0.7020   20.2340 C.ar    1  UNL1        0.0198
     11 C           5.2350    1.1350   19.0570 C.ar    1  UNL1        0.0220
     12 C           5.9150    0.9580   17.8610 C.ar    1  UNL1        0.0990
     13 C           7.7280   -0.0310   18.8990 C.ar    1  UNL1        0.1154
     14 N           7.7050   -0.3290   21.3320 N.am    1  UNL1       -0.1776
     15 N           7.1140    0.3960   17.8170 N.ar    1  UNL1       -0.2410
     16 O           9.5180    1.0170   21.0300 O.2     1  UNL1       -0.2730
@<TRIPOS>BOND
     1     2     1    1
     2     3     2    1
     3     4     3    1
     4     5     4    1
     5     6     5    1
     6     7     6    1
     7     8     7    1
     8     8     3    1
     9    10     9   ar
    10    11    10   ar
    11    12    11   ar
    12    13     9   ar
    13    14     9    1
    14    14     1   am
    15    15    13   ar
    16    15    12   ar
    17    16     1    2
