@<TRIPOS>MOLECULE
*****
 15 16 0 0 0
SMALL
GASTEIGER

@<TRIPOS>ATOM
      1 C          22.4860   14.9650    8.5220 C.3     1  UNL1        0.0200
      2 C          21.3720   14.8800    7.4810 C.3     1  UNL1        0.0883
      3 C          20.6590   13.5380    7.7240 C.3     1  UNL1        0.1665
      4 C          21.1390   12.4400    6.9210 C.3     1  UNL1        0.0357
      5 C          22.4500   12.6040    6.3490 C.3     1  UNL1        0.0200
      6 C          22.6760   13.9360    5.6490 C.3     1  UNL1        0.0725
      7 C          22.5480   16.1050    5.9580 C.3     1  UNL1        0.0992
      8 C          21.7420   17.3670    5.6490 C.ar    1  UNL1       -0.0061
      9 C          21.3740   17.6210    4.3330 C.ar    1  UNL1       -0.0029
     10 C          20.6620   18.7710    4.0200 C.ar    1  UNL1       -0.0003
     11 C          20.3320   19.6740    5.0200 C.ar    1  UNL1       -0.0000
     12 C          20.7070   19.4320    6.3340 C.ar    1  UNL1       -0.0003
     13 C          21.4230   18.2810    6.6490 C.ar    1  UNL1       -0.0029
     14 N          21.9010   15.0630    6.1360 N.3     1  UNL1       -0.2680
     15 O          19.2920   13.7270    7.4800 O.3     1  UNL1       -0.2217
@<TRIPOS>BOND
     1     2     1    1
     2     3     2    1
     3     4     3    1
     4     5     4    1
     5     6     5    1
     6     8     7    1
     7     9     8   ar
     8    10     9   ar
     9    11    10   ar
    10    12    11   ar
    11    13    12   ar
    12    13     8   ar
    13    14     2    1
    14    14     7    1
    15    14     6    1
    16     3    15    1
