@<TRIPOS>MOLECULE
*****
 28 31 0 0 0
SMALL
GASTEIGER

@<TRIPOS>ATOM
      1 O           9.4470    1.1290   21.0290 O.2     1  UNL1       -0.2727
      2 C           8.9180    0.1580   21.5550 C.2     1  UNL1        0.2486
      3 C           9.5220   -0.4640   22.8270 C.3     1  UNL1        0.0949
      4 C          11.0350   -0.1960   22.8630 C.ar    1  UNL1        0.0013
      5 C          11.8810   -0.8830   21.9950 C.ar    1  UNL1        0.0088
      6 C          13.2190   -0.5440   21.9450 C.ar    1  UNL1        0.0575
      7 CL         14.2480   -1.3510   20.7970 Cl      1  UNL1       -0.0823
      8 C          13.7480    0.4410   22.7480 C.ar    1  UNL1        0.0127
      9 C          12.9240    1.0980   23.6430 C.ar    1  UNL1        0.0166
     10 C          11.5660    0.7940   23.7020 C.ar    1  UNL1        0.0618
     11 N          10.7560    1.4860   24.5590 N.pl3   1  UNL1       -0.2379
     12 C           9.3330    1.5980   24.3010 C.3     1  UNL1        0.1130
     13 C           8.7580    0.2370   23.9750 C.3     1  UNL1        0.0362
     14 C           9.3090   -1.9940   22.8920 C.3     1  UNL1        0.0449
     15 C           9.8300   -2.6160   24.1720 C.3     1  UNL1        0.1431
     16 O          10.0630   -3.9890   24.2230 O.3     1  UNL1       -0.3511
     17 C          10.4300   -4.3980   25.5300 C.3     1  UNL1        0.1741
     18 N           7.7700   -0.3890   21.0880 N.am    1  UNL1       -0.1774
     19 C           7.0410    0.0350   19.9590 C.ar    1  UNL1        0.0925
     20 C           5.8510    0.7970   20.1630 C.ar    1  UNL1        0.0184
     21 C           5.3310    1.1180   21.4410 C.ar    1  UNL1        0.0014
     22 C           4.2250    1.9090   21.5720 C.ar    1  UNL1        0.0000
     23 C           3.5800    2.4100   20.4550 C.ar    1  UNL1        0.0001
     24 C           4.0320    2.1180   19.2020 C.ar    1  UNL1        0.0016
     25 C           5.1800    1.3080   19.0200 C.ar    1  UNL1        0.0204
     26 C           5.7220    1.0060   17.7460 C.ar    1  UNL1        0.0989
     27 N           6.8200    0.2890   17.5560 N.ar    1  UNL1       -0.2410
     28 C           7.4520   -0.1730   18.6430 C.ar    1  UNL1        0.1154
@<TRIPOS>BOND
     1     2     1    2
     2     3     2    1
     3     4     3    1
     4     5     4   ar
     5     6     5   ar
     6     7     6    1
     7     8     6   ar
     8     9     8   ar
     9    10     9   ar
    10    10     4   ar
    11    11    10    1
    12    12    11    1
    13    13    12    1
    14    13     3    1
    15     3    14    1
    16    15    14    1
    17    16    15    1
    18    17    16    1
    19    18     2   am
    20    19    18    1
    21    20    19   ar
    22    21    20   ar
    23    22    21   ar
    24    23    22   ar
    25    24    23   ar
    26    25    24   ar
    27    25    20   ar
    28    26    25   ar
    29    27    26   ar
    30    28    27   ar
    31    28    19   ar
