@<TRIPOS>MOLECULE
*****
 28 31 0 0 0
SMALL
GASTEIGER

@<TRIPOS>ATOM
      1 O           9.2450    1.3150   21.0740 O.2     1  UNL1       -0.2723
      2 C           8.9680    0.2940   21.6880 C.2     1  UNL1        0.2546
      3 C           8.2160   -0.8510   21.0080 C.3     1  UNL1        0.2141
      4 N           7.3280   -0.3720   19.9700 N.ar    1  UNL1       -0.2223
      5 C           6.2050    0.3920   20.0670 C.ar    1  UNL1        0.0994
      6 C           5.3980    0.7850   21.1270 C.ar    1  UNL1        0.0204
      7 C           4.3080    1.5980   20.8390 C.ar    1  UNL1        0.0016
      8 C           4.0360    1.9970   19.5320 C.ar    1  UNL1        0.0017
      9 C           4.8510    1.6000   18.4810 C.ar    1  UNL1        0.0225
     10 C           5.9470    0.7880   18.7580 C.ar    1  UNL1        0.1217
     11 N           6.9230    0.2640   17.9400 N.ar    1  UNL1       -0.1288
     12 N           7.7460   -0.4270   18.6800 N.ar    1  UNL1       -0.0634
     13 N           9.2990    0.1150   22.9980 N.am    1  UNL1       -0.2511
     14 C           9.7070    1.2780   23.7790 C.3     1  UNL1        0.1444
     15 C          11.0200    1.8430   23.3350 C.ar    1  UNL1        0.0865
     16 N          11.0390    3.1420   22.8480 N.ar    1  UNL1       -0.2389
     17 C          12.2520    3.4620   22.5220 C.ar    1  UNL1        0.1342
     18 S          13.4320    2.2530   22.7810 S.2     1  UNL1       -0.0642
     19 C          12.2160    1.2230   23.3640 C.ar    1  UNL1        0.0534
     20 C           9.1590   -1.1240   23.6840 C.ar    1  UNL1        0.0543
     21 C           9.9620   -2.2090   23.3570 C.ar    1  UNL1        0.0162
     22 C           9.8600   -3.3880   24.0700 C.ar    1  UNL1        0.0158
     23 C           8.2420   -1.2400   24.7160 C.ar    1  UNL1        0.0162
     24 C           8.1530   -2.4100   25.4470 C.ar    1  UNL1        0.0158
     25 C           8.9630   -3.5070   25.1410 C.ar    1  UNL1        0.0480
     26 N           8.8910   -4.6660   25.8770 N.pl3   1  UNL1       -0.3041
     27 C           7.6900   -5.0020   26.6270 C.3     1  UNL1        0.1122
     28 C           9.7320   -5.8030   25.5430 C.3     1  UNL1        0.1122
@<TRIPOS>BOND
     1     2     1    2
     2     3     2    1
     3     4     3    1
     4     5     4   ar
     5     6     5   ar
     6     7     6   ar
     7     8     7   ar
     8     9     8   ar
     9    10     9   ar
    10    10     5   ar
    11    11    10   ar
    12    12    11   ar
    13    12     4   ar
    14    13     2   am
    15    14    13    1
    16    15    14    1
    17    16    15   ar
    18    17    16   ar
    19    18    17   ar
    20    19    18   ar
    21    19    15   ar
    22    20    13    1
    23    21    20   ar
    24    22    21   ar
    25    23    20   ar
    26    24    23   ar
    27    25    24   ar
    28    25    22   ar
    29    26    25    1
    30    27    26    1
    31    28    26    1
