@<TRIPOS>MOLECULE
*****
 12 12 0 0 0
SMALL
GASTEIGER

@<TRIPOS>ATOM
      1 N           6.3030   -5.2040   24.2960 N.am    1  UNL1       -0.2760
      2 C           4.9940   -6.2140   26.0930 C.3     1  UNL1        0.0948
      3 O           7.2850   -5.6440   26.2620 O.2     1  UNL1       -0.2749
      4 C           6.2800   -5.6650   25.5610 C.2     1  UNL1        0.2262
      5 C           5.3350   -5.5830   23.2610 C.3     1  UNL1        0.1149
      6 C           6.0340   -6.0160   21.9890 C.3     1  UNL1        0.1149
      7 C           7.9650   -4.6780   22.5910 C.3     1  UNL1        0.1149
      8 C           7.2720   -4.2080   23.8470 C.3     1  UNL1        0.1149
      9 C           7.0030   -4.3330   20.3850 C.2     1  UNL1        0.2262
     10 C           8.3030   -3.6430   20.0820 C.3     1  UNL1        0.0948
     11 N           6.9740   -4.9860   21.5620 N.am    1  UNL1       -0.2760
     12 O           6.0600   -4.2980   19.6060 O.2     1  UNL1       -0.2749
@<TRIPOS>BOND
     1     4     2    1
     2     4     3    2
     3     4     1   am
     4     5     1    1
     5     6     5    1
     6     8     7    1
     7     8     1    1
     8    10     9    1
     9    11     6    1
    10    11     9   am
    11    11     7    1
    12    12     9    2
