@<TRIPOS>MOLECULE
*****
 15 16 0 0 0
SMALL
GASTEIGER

@<TRIPOS>ATOM
      1 C          11.0290  -25.7990    3.3720 C.ar    1  UNL1        0.1399
      2 C          12.1620  -25.0090    3.4560 C.ar    1  UNL1        0.0296
      3 C          12.4500  -24.0900    2.4510 C.ar    1  UNL1        0.0020
      4 C          11.5990  -23.9560    1.3760 C.ar    1  UNL1       -0.0027
      5 C          10.4540  -24.7500    1.3000 C.ar    1  UNL1       -0.0026
      6 C           9.4820  -24.6370    0.0830 C.3     1  UNL1        0.1156
      7 C           8.0850  -23.2610   -1.2140 C.3     1  UNL1        0.1532
      8 C           7.2660  -21.9630   -1.2520 C.ar    1  UNL1        0.1405
      9 C           7.6170  -20.7710   -1.8820 C.ar    1  UNL1        0.0377
     10 C           6.5870  -19.8680   -1.6630 C.ar    1  UNL1        0.0435
     11 C           5.5980  -20.5420   -0.8890 C.ar    1  UNL1        0.1792
     12 C          10.1730  -25.6710    2.2950 C.ar    1  UNL1        0.0268
     13 F          10.7330  -26.6950    4.3360 F       1  UNL1       -0.2042
     14 N           9.0080  -23.2560   -0.1450 N.3     1  UNL1       -0.2052
     15 O           6.0330  -21.7780   -0.6740 O.2     1  UNL1       -0.4532
@<TRIPOS>BOND
     1     2     1   ar
     2     3     2   ar
     3     4     3   ar
     4     5     4   ar
     5     6     5    1
     6     8     7    1
     7     9     8   ar
     8    10     9   ar
     9    11    10   ar
    10    12     5   ar
    11    12     1   ar
    12    13     1    1
    13    14     7    1
    14    14     6    1
    15    15     8   ar
    16    15    11   ar
