@<TRIPOS>MOLECULE
*****
 31 34 0 0 0
SMALL
GASTEIGER

@<TRIPOS>ATOM
      1 O           9.0380    1.4660   21.1770 O.2     1  UNL1       -0.2741
      2 C           8.8480    0.3870   21.7290 C.2     1  UNL1        0.2351
      3 C           7.9360   -0.6500   21.0980 C.3     1  UNL1        0.1135
      4 C           7.0600   -0.0640   20.0120 C.ar    1  UNL1        0.0061
      5 C           5.9530    0.7700   20.3370 C.ar    1  UNL1       -0.0005
      6 C           5.5710    1.0780   21.6700 C.ar    1  UNL1       -0.0002
      7 C           4.5090    1.9010   21.9250 C.ar    1  UNL1       -0.0000
      8 C           3.7780    2.4560   20.8840 C.ar    1  UNL1        0.0000
      9 C           4.1090    2.1940   19.5850 C.ar    1  UNL1        0.0015
     10 C           5.1960    1.3430   19.2770 C.ar    1  UNL1        0.0189
     11 C           5.5940    1.0370   17.9510 C.ar    1  UNL1        0.0988
     12 N           6.6210    0.2480   17.6500 N.ar    1  UNL1       -0.2426
     13 C           7.3220   -0.2770   18.6700 C.ar    1  UNL1        0.0951
     14 N           9.3950    0.0920   22.9440 N.am    1  UNL1       -0.2392
     15 C           9.2220   -1.1420   23.5900 C.ar    1  UNL1        0.1378
     16 C           8.4100   -1.2630   24.7090 C.ar    1  UNL1        0.0360
     17 C           8.3820   -2.4900   25.3420 C.ar    1  UNL1        0.0190
     18 N           9.9490   -2.1470   23.0810 N.ar    1  UNL1       -0.2275
     19 C           9.9010   -3.3380   23.7040 C.ar    1  UNL1        0.1148
     20 C           9.1310   -3.5590   24.8440 C.ar    1  UNL1        0.0675
     21 N           9.1050   -4.8100   25.4560 N.pl3   1  UNL1       -0.3029
     22 C           8.7060   -4.9500   26.8470 C.3     1  UNL1        0.1123
     23 C           9.8790   -5.9250   24.9280 C.3     1  UNL1        0.1123
     24 C          10.1850    1.1280   23.6230 C.3     1  UNL1        0.1262
     25 C          11.6250    1.1810   23.1700 C.ar    1  UNL1       -0.0011
     26 C          12.2290    0.0600   22.6070 C.ar    1  UNL1        0.0088
     27 C          13.5060    0.1610   22.0870 C.ar    1  UNL1        0.0574
     28 CL         14.1510   -1.1750   21.1670 Cl      1  UNL1       -0.0823
     29 C          14.2530    1.3100   22.2200 C.ar    1  UNL1        0.0114
     30 C          13.6600    2.4230   22.7960 C.ar    1  UNL1        0.0006
     31 C          12.3500    2.3630   23.2480 C.ar    1  UNL1       -0.0025
@<TRIPOS>BOND
     1     2     1    2
     2     3     2    1
     3     4     3    1
     4     5     4   ar
     5     6     5   ar
     6     7     6   ar
     7     8     7   ar
     8     9     8   ar
     9    10     9   ar
    10    10     5   ar
    11    11    10   ar
    12    12    11   ar
    13    13    12   ar
    14    13     4   ar
    15    14     2   am
    16    15    14    1
    17    16    15   ar
    18    17    16   ar
    19    18    15   ar
    20    19    18   ar
    21    20    19   ar
    22    20    17   ar
    23    21    20    1
    24    22    21    1
    25    23    21    1
    26    24    14    1
    27    25    24    1
    28    26    25   ar
    29    27    26   ar
    30    28    27    1
    31    29    27   ar
    32    30    29   ar
    33    31    30   ar
    34    31    25   ar
