@<TRIPOS>MOLECULE
*****
 17 18 0 0 0
SMALL
GASTEIGER

@<TRIPOS>ATOM
      1 O           8.5250   -3.9450   20.9170 O.3     1  UNL1       -0.2083
      2 C           5.9520    0.6630   18.4940 C.2     1  UNL1        0.3851
      3 C           5.8100   -0.2250   19.7050 C.3     1  UNL1        0.2126
      4 O           6.2360   -3.0580   19.3120 O.2     1  UNL1       -0.2714
      5 N           7.0040   -1.0000   20.0190 N.am    1  UNL1       -0.2458
      6 C           8.4350    0.7760   21.1040 C.ar    1  UNL1        0.0144
      7 C           9.6380    1.0000   21.7600 C.ar    1  UNL1       -0.0030
      8 O           6.8910    0.6420   17.7410 O.co2   1  UNL1       -0.2437
      9 O           4.9450    1.4780   18.3690 O.co2   1  UNL1       -0.2437
     10 C           7.1190   -2.3410   19.7510 C.2     1  UNL1        0.2646
     11 C           8.1530   -0.5080   20.6500 C.ar    1  UNL1        0.0533
     12 C           9.0590   -1.5420   20.8370 C.ar    1  UNL1        0.0300
     13 C          10.2310   -1.3030   21.5300 C.ar    1  UNL1       -0.0044
     14 C           8.5340   -2.7610   20.1260 C.3     1  UNL1        0.2513
     15 C          10.5500   -0.0310   21.9860 C.ar    1  UNL1       -0.0223
     16 C          11.8770    0.2310   22.6670 C.3     1  UNL1        0.0264
     17 C          13.0450   -0.5120   22.0010 C.3     1  UNL1        0.0050
@<TRIPOS>BOND
     1     3     2    1
     2     5     3    1
     3     7     6   ar
     4     8     2   ar
     5     9     2   ar
     6    10     5   am
     7    10     4    2
     8    11     6   ar
     9    11     5    1
    10    12    11   ar
    11    13    12   ar
    12    14    12    1
    13    14    10    1
    14    14     1    1
    15    15    13   ar
    16    15     7   ar
    17    16    15    1
    18    17    16    1
