@<TRIPOS>MOLECULE
*****
 18 19 0 0 0
SMALL
GASTEIGER

@<TRIPOS>ATOM
      1 N           6.7920   -2.1540   24.1530 N.am    1  UNL1       -0.2726
      2 C           1.3510   -2.5010   27.7630 C.3     1  UNL1        0.0310
      3 O           7.6430   -1.8610   26.2210 O.2     1  UNL1       -0.2699
      4 C           2.7340   -2.3930   27.1840 C.ar    1  UNL1       -0.0218
      5 C           6.2490   -3.8460   22.4810 C.3     1  UNL1        0.1149
      6 C           5.7300   -2.6840   23.2950 C.3     1  UNL1        0.1152
      7 C           7.4180   -3.4060   20.3450 C.2     1  UNL1        0.2262
      8 C           8.6990   -2.9400   19.7090 C.3     1  UNL1        0.0948
      9 C           3.7700   -3.1910   27.6390 C.ar    1  UNL1       -0.0041
     10 C           5.0440   -3.0910   27.1060 C.ar    1  UNL1        0.0042
     11 C           5.3070   -2.1770   26.1000 C.ar    1  UNL1        0.0536
     12 C           4.2780   -1.3790   25.6330 C.ar    1  UNL1        0.0042
     13 C           3.0080   -1.4890   26.1720 C.ar    1  UNL1       -0.0041
     14 C           6.6760   -2.0570   25.4910 C.2     1  UNL1        0.2491
     15 C           7.9960   -1.7640   23.4190 C.3     1  UNL1        0.1152
     16 C           8.4790   -2.8920   22.5320 C.3     1  UNL1        0.1149
     17 N           7.3890   -3.3950   21.6920 N.am    1  UNL1       -0.2760
     18 O           6.4620   -3.7540   19.6630 O.2     1  UNL1       -0.2749
@<TRIPOS>BOND
     1     4     2    1
     2     6     5    1
     3     6     1    1
     4     8     7    1
     5     9     4   ar
     6    10     9   ar
     7    11    10   ar
     8    12    11   ar
     9    13    12   ar
    10    13     4   ar
    11    14    11    1
    12    14     3    2
    13    14     1   am
    14    15     1    1
    15    16    15    1
    16    17     7   am
    17    17    16    1
    18    17     5    1
    19    18     7    2
