@<TRIPOS>MOLECULE
*****
 26 28 0 0 0
SMALL
GASTEIGER

@<TRIPOS>ATOM
      1 O          12.0470    0.5290   23.5650 O.2     1  UNL1       -0.1527
      2 S          11.2200   -0.0310   24.5860 S.O2    1  UNL1        0.0652
      3 O          10.9240    0.7320   25.7590 O.2     1  UNL1       -0.1527
      4 C          11.9800   -1.5510   25.1170 C.ar    1  UNL1        0.1397
      5 C          11.2290   -2.6550   25.6170 C.ar    1  UNL1        0.0998
      6 N           9.8650   -2.6370   25.5340 N.ar    1  UNL1       -0.2425
      7 C           9.2130   -3.7220   25.9200 C.ar    1  UNL1        0.0989
      8 C           9.8210   -4.8650   26.4040 C.ar    1  UNL1        0.0207
      9 C          11.1800   -4.8940   26.5010 C.ar    1  UNL1        0.0031
     10 C          11.9470   -3.7730   26.1060 C.ar    1  UNL1        0.0190
     11 C          13.3620   -3.7450   26.0930 C.ar    1  UNL1        0.0016
     12 C          14.0330   -2.6780   25.5820 C.ar    1  UNL1        0.0015
     13 C          13.3480   -1.5850   25.0830 C.ar    1  UNL1        0.0215
     14 N           9.7890   -0.3860   23.8950 N.3     1  UNL1       -0.1446
     15 C           8.5860   -0.3160   24.7310 C.3     1  UNL1        0.1155
     16 C           9.6770   -1.0530   22.5840 C.3     1  UNL1        0.1825
     17 C           9.0880   -0.1620   21.5050 C.2     1  UNL1        0.2637
     18 O           9.6690    0.8480   21.1130 O.2     1  UNL1       -0.2714
     19 N           7.8850   -0.5740   21.0490 N.am    1  UNL1       -0.1767
     20 C           7.1180    0.0070   20.0120 C.ar    1  UNL1        0.0886
     21 C           5.8840    0.6140   20.3100 C.ar    1  UNL1       -0.0034
     22 C           5.3640    0.7140   21.7210 C.3     1  UNL1        0.0325
     23 C           5.1570    1.1410   19.2450 C.ar    1  UNL1        0.0177
     24 C           5.6640    1.0560   17.9640 C.ar    1  UNL1        0.0987
     25 N           6.8390    0.4890   17.6690 N.ar    1  UNL1       -0.2410
     26 C           7.5440   -0.0240   18.6830 C.ar    1  UNL1        0.1151
@<TRIPOS>BOND
     1     2     1    2
     2     3     2    2
     3     4     2    1
     4     5     4   ar
     5     6     5   ar
     6     7     6   ar
     7     8     7   ar
     8     9     8   ar
     9    10     9   ar
    10    10     5   ar
    11    11    10   ar
    12    12    11   ar
    13    13    12   ar
    14    13     4   ar
    15     2    14    1
    16    15    14    1
    17    16    14    1
    18    17    16    1
    19    18    17    2
    20    19    17   am
    21    20    19    1
    22    21    20   ar
    23    22    21    1
    24    23    21   ar
    25    24    23   ar
    26    25    24   ar
    27    26    25   ar
    28    26    20   ar
