@<TRIPOS>MOLECULE
*****
 19 20 0 0 0
SMALL
GASTEIGER

@<TRIPOS>ATOM
      1 N          14.4380   -1.9770   20.5430 N.1     1  UNL1       -0.1908
      2 C          13.7200   -1.4490   21.2590 C.1     1  UNL1        0.1004
      3 C          12.8030   -0.8190   22.1720 C.ar    1  UNL1        0.0681
      4 C          13.2800    0.0200   23.1770 C.ar    1  UNL1        0.0103
      5 C          12.3940    0.5780   24.0830 C.ar    1  UNL1        0.0004
      6 C          11.0380    0.3170   23.9790 C.ar    1  UNL1       -0.0037
      7 C          11.4370   -1.0770   22.0680 C.ar    1  UNL1        0.0065
      8 C          10.5450   -0.5020   22.9700 C.ar    1  UNL1       -0.0124
      9 C           9.0590   -0.7300   22.8160 C.3     1  UNL1        0.1135
     10 C           8.5540    0.0500   21.6190 C.2     1  UNL1        0.2500
     11 O           9.1900    0.9860   21.1420 O.2     1  UNL1       -0.2726
     12 N           7.3920   -0.3970   21.1110 N.am    1  UNL1       -0.1777
     13 C           6.7360    0.1530   19.9930 C.ar    1  UNL1        0.0885
     14 C           5.5270    0.8410   20.1730 C.ar    1  UNL1       -0.0034
     15 C           4.9240    1.0470   21.5400 C.3     1  UNL1        0.0325
     16 C           7.2600    0.0360   18.7030 C.ar    1  UNL1        0.1151
     17 N           6.6650    0.5520   17.6210 N.ar    1  UNL1       -0.2410
     18 C           5.5080    1.1970   17.8030 C.ar    1  UNL1        0.0987
     19 C           4.9160    1.3670   19.0390 C.ar    1  UNL1        0.0177
@<TRIPOS>BOND
     1     2     1    3
     2     3     2    1
     3     4     3   ar
     4     5     4   ar
     5     6     5   ar
     6     7     3   ar
     7     8     7   ar
     8     8     6   ar
     9     9     8    1
    10    10     9    1
    11    11    10    2
    12    12    10   am
    13    13    12    1
    14    14    13   ar
    15    15    14    1
    16    16    13   ar
    17    17    16   ar
    18    18    17   ar
    19    19    18   ar
    20    19    14   ar
