@<TRIPOS>MOLECULE
*****
 19 20 0 0 0
SMALL
GASTEIGER

@<TRIPOS>ATOM
      1 N           5.4910   -5.5570   24.3360 N.3     1  UNL1       -0.1520
      2 C           2.9430   -1.9830   25.8110 C.ar    1  UNL1        0.1415
      3 O           4.0650   -6.7990   25.9110 O.2     1  UNL1       -0.1528
      4 C           1.6020   -2.2690   25.7220 C.ar    1  UNL1        0.0297
      5 C           6.6440   -4.4690   20.5690 C.2     1  UNL1        0.2262
      6 C           7.9120   -3.6840   20.3630 C.3     1  UNL1        0.0948
      7 C           1.2290   -3.5970   25.6620 C.ar    1  UNL1        0.0037
      8 C           2.1870   -4.5990   25.6830 C.ar    1  UNL1        0.0201
      9 C           3.5310   -4.2690   25.7680 C.ar    1  UNL1        0.1244
     10 C           3.9270   -2.9450   25.8340 C.ar    1  UNL1        0.0495
     11 C           6.5300   -4.5400   24.1080 C.3     1  UNL1        0.1173
     12 C           7.3610   -4.9300   22.9140 C.3     1  UNL1        0.1126
     13 C           5.4820   -6.1450   21.9870 C.3     1  UNL1        0.1126
     14 C           4.6280   -5.7370   23.1570 C.3     1  UNL1        0.1173
     15 F           3.3230   -0.6880   25.8710 F       1  UNL1       -0.2041
     16 N           6.5070   -5.1320   21.7420 N.am    1  UNL1       -0.2766
     17 O           5.7440   -5.1930   26.7590 O.2     1  UNL1       -0.1528
     18 O           5.7940   -4.5020   19.6890 O.2     1  UNL1       -0.2749
     19 S           4.7500   -5.5490   25.7970 S.O2    1  UNL1        0.0635
@<TRIPOS>BOND
     1     4     2   ar
     2     6     5    1
     3     7     4   ar
     4     8     7   ar
     5     9     8   ar
     6    10     9   ar
     7    10     2   ar
     8    11     1    1
     9    12    11    1
    10    14    13    1
    11    14     1    1
    12    15     2    1
    13    16    13    1
    14    16     5   am
    15    16    12    1
    16    18     5    2
    17    19     3    2
    18    19     9    1
    19    19     1    1
    20    19    17    2
