@<TRIPOS>MOLECULE
*****
 26 28 0 0 0
SMALL
GASTEIGER

@<TRIPOS>ATOM
      1 F           4.3830   -0.4250   22.5380 F       1  UNL1       -0.2041
      2 C           4.0000    0.4930   21.6260 C.ar    1  UNL1        0.1417
      3 C           2.9980    1.3680   21.9700 C.ar    1  UNL1        0.0297
      4 C           2.6000    2.3130   21.0430 C.ar    1  UNL1        0.0039
      5 C           3.2180    2.3900   19.8070 C.ar    1  UNL1        0.0194
      6 C           4.6360    0.4980   20.3900 C.ar    1  UNL1        0.0498
      7 C           4.2400    1.5010   19.4800 C.ar    1  UNL1        0.0868
      8 N           4.8910    1.6060   18.2550 N.ar    1  UNL1       -0.2078
      9 C           5.9130    0.7920   17.8490 C.ar    1  UNL1        0.2794
     10 O           6.5200    1.0330   16.8020 O.2     1  UNL1       -0.2652
     11 C           6.2640   -0.2570   18.7430 C.ar    1  UNL1        0.0672
     12 C           5.6810   -0.4450   19.9580 C.ar    1  UNL1        0.0634
     13 C           6.0640   -1.6570   20.7470 C.2     1  UNL1        0.2652
     14 O           5.3310   -2.6450   20.7990 O.2     1  UNL1       -0.2684
     15 N           7.2090   -1.5860   21.4280 N.am    1  UNL1       -0.1977
     16 C           7.5850   -2.5900   22.4150 C.3     1  UNL1        0.1626
     17 C           9.0540   -2.5510   22.7310 C.3     1  UNL1        0.2289
     18 O           9.4730   -1.1790   22.6560 O.3     1  UNL1       -0.4705
     19 C          10.8130   -0.8880   22.7240 C.ar    1  UNL1        0.1723
     20 C          11.1240    0.4210   23.1420 C.ar    1  UNL1        0.1724
     21 O          10.0440    1.2110   23.4300 O.3     1  UNL1       -0.4684
     22 C          10.2720    2.6020   23.6610 C.3     1  UNL1        0.2526
     23 C          11.8300   -1.7540   22.3490 C.ar    1  UNL1        0.0400
     24 C          13.1430   -1.3150   22.3660 C.ar    1  UNL1        0.0033
     25 C          13.4510   -0.0310   22.7800 C.ar    1  UNL1        0.0033
     26 C          12.4490    0.8370   23.1820 C.ar    1  UNL1        0.0400
@<TRIPOS>BOND
     1     2     1    1
     2     3     2   ar
     3     4     3   ar
     4     5     4   ar
     5     6     2   ar
     6     7     6   ar
     7     7     5   ar
     8     8     7   ar
     9     9     8   ar
    10    10     9    2
    11    11     9   ar
    12    12     6   ar
    13    12    11   ar
    14    13    12    1
    15    14    13    2
    16    15    13   am
    17    16    15    1
    18    17    16    1
    19    18    17    1
    20    19    18    1
    21    20    19   ar
    22    21    20    1
    23    22    21    1
    24    23    19   ar
    25    24    23   ar
    26    25    24   ar
    27    26    25   ar
    28    26    20   ar
