@<TRIPOS>MOLECULE
*****
 20 22 0 0 0
SMALL
GASTEIGER

@<TRIPOS>ATOM
      1 O           8.8080    0.6010   20.9010 O.2     1  UNL1       -0.2726
      2 C           8.2280   -0.2670   21.5550 C.2     1  UNL1        0.2500
      3 C           8.9710   -1.2380   22.4510 C.3     1  UNL1        0.1135
      4 C          10.3900   -0.8050   22.7430 C.ar    1  UNL1       -0.0122
      5 C          10.6620    0.2810   23.5660 C.ar    1  UNL1       -0.0037
      6 C          11.9650    0.7250   23.7480 C.ar    1  UNL1        0.0006
      7 C          13.0120    0.0930   23.0960 C.ar    1  UNL1        0.0114
      8 C          11.4440   -1.4590   22.1250 C.ar    1  UNL1        0.0076
      9 C          12.7270   -0.9890   22.2840 C.ar    1  UNL1        0.0574
     10 CL         14.0080   -1.7370   21.3690 Cl      1  UNL1       -0.0823
     11 N           6.8850   -0.4080   21.6010 N.am    1  UNL1       -0.1788
     12 C           5.9080    0.3770   20.9410 C.ar    1  UNL1        0.0764
     13 C           5.9710    0.5220   19.5440 C.ar    1  UNL1        0.0556
     14 C           6.7980    0.0800   18.4830 C.ar    1  UNL1        0.1250
     15 N           6.3930    0.5570   17.3220 N.ar    1  UNL1       -0.1463
     16 N           5.2920    1.3220   17.5910 N.ar    1  UNL1       -0.1479
     17 C           4.9970    1.3240   18.9180 C.ar    1  UNL1        0.1057
     18 C           3.9850    1.9510   19.6350 C.ar    1  UNL1        0.0210
     19 C           3.9340    1.7790   21.0100 C.ar    1  UNL1        0.0029
     20 C           4.8840    1.0060   21.6590 C.ar    1  UNL1        0.0167
@<TRIPOS>BOND
     1     2     1    2
     2     3     2    1
     3     4     3    1
     4     5     4   ar
     5     6     5   ar
     6     7     6   ar
     7     8     4   ar
     8     9     8   ar
     9     9     7   ar
    10    10     9    1
    11    11     2   am
    12    12    11    1
    13    13    12   ar
    14    14    13   ar
    15    15    14   ar
    16    16    15   ar
    17    17    16   ar
    18    17    13   ar
    19    18    17   ar
    20    19    18   ar
    21    20    19   ar
    22    20    12   ar
