@<TRIPOS>MOLECULE
*****
 22 23 0 0 0
SMALL
GASTEIGER

@<TRIPOS>ATOM
      1 CL         13.8710   -1.8810   21.4000 Cl      1  UNL1       -0.0823
      2 C          12.7360   -0.8850   22.2700 C.ar    1  UNL1        0.0574
      3 C          13.1800    0.2680   22.8850 C.ar    1  UNL1        0.0114
      4 C          12.2500    1.0970   23.4970 C.ar    1  UNL1        0.0006
      5 C          10.9050    0.7580   23.4950 C.ar    1  UNL1       -0.0032
      6 C          11.4040   -1.2420   22.2710 C.ar    1  UNL1        0.0081
      7 C          10.4680   -0.4070   22.8770 C.ar    1  UNL1       -0.0023
      8 C           8.9790   -0.7210   22.7600 C.3     1  UNL1        0.1992
      9 C           8.2450   -0.2850   24.0220 C.2     1  UNL1        0.3297
     10 O           7.5510    0.6920   24.1070 O.2     1  UNL1       -0.2492
     11 O           8.5160   -1.1120   25.0340 O.3     1  UNL1       -0.4438
     12 C           8.0980   -0.6880   26.3530 C.3     1  UNL1        0.2556
     13 C           8.4070    0.0330   21.5340 C.2     1  UNL1        0.2601
     14 O           8.9190    1.0620   21.1090 O.2     1  UNL1       -0.2720
     15 N           7.3130   -0.5300   20.9880 N.am    1  UNL1       -0.1772
     16 C           6.6130    0.0670   19.9070 C.ar    1  UNL1        0.0885
     17 C           5.4610    0.8320   20.1580 C.ar    1  UNL1       -0.0034
     18 C           4.9100    1.0100   21.5510 C.3     1  UNL1        0.0325
     19 C           4.8640    1.4660   19.0740 C.ar    1  UNL1        0.0177
     20 C           5.4100    1.3220   17.8120 C.ar    1  UNL1        0.0987
     21 N           6.5030    0.5910   17.5590 N.ar    1  UNL1       -0.2410
     22 C           7.0850   -0.0210   18.5960 C.ar    1  UNL1        0.1151
@<TRIPOS>BOND
     1     2     1    1
     2     3     2   ar
     3     4     3   ar
     4     5     4   ar
     5     6     2   ar
     6     7     6   ar
     7     7     5   ar
     8     8     7    1
     9     8     9    1
    10    10     9    2
    11    11     9    1
    12    12    11    1
    13    13     8    1
    14    14    13    2
    15    15    13   am
    16    16    15    1
    17    17    16   ar
    18    18    17    1
    19    19    17   ar
    20    20    19   ar
    21    21    20   ar
    22    22    21   ar
    23    22    16   ar
