@<TRIPOS>MOLECULE
*****
 30 33 0 0 0
SMALL
GASTEIGER

@<TRIPOS>ATOM
      1 O           8.8410    1.4190   20.8920 O.3     1  UNL1       -0.2034
      2 C           8.4920    0.3820   21.5220 C.3     1  UNL1        0.2302
      3 N           9.0600    0.1120   22.7570 N.3     1  UNL1       -0.2485
      4 C           8.7310   -1.0910   23.5540 C.3     1  UNL1        0.0598
      5 C           7.9020   -1.0200   24.6880 C.3     1  UNL1        0.0175
      6 C           7.5520   -2.1260   25.5060 C.3     1  UNL1        0.0188
      7 C           8.0200   -3.4380   25.2340 C.3     1  UNL1        0.0754
      8 N           7.6780   -4.5930   26.0680 N.3     1  UNL1       -0.1907
      9 C           6.4300   -4.8710   26.6730 C.3     1  UNL1        0.2255
     10 C           6.0770   -6.0940   27.5930 C.3     1  UNL1        0.0514
     11 C           7.2080   -6.8190   28.3140 C.3     1  UNL1        0.0043
     12 O           5.4980   -4.0690   26.4700 O.3     1  UNL1       -0.2037
     13 C           8.8530   -3.5230   24.1120 C.3     1  UNL1        0.0188
     14 C           9.1980   -2.3920   23.3000 C.3     1  UNL1        0.0175
     15 C          10.1770    1.0040   23.3050 C.3     1  UNL1        0.0752
     16 C          11.4370    0.2010   23.4660 C.3     1  UNL1        0.0277
     17 C          11.6620   -0.5220   24.5640 C.3     1  UNL1        0.0589
     18 S          13.0820   -1.4430   24.4990 S.3     1  UNL1       -0.1402
     19 C          13.3990   -0.9110   22.9270 C.3     1  UNL1        0.0576
     20 C          12.4340   -0.0660   22.5180 C.3     1  UNL1        0.0139
     21 C           7.4230   -0.4690   20.8210 C.3     1  UNL1        0.1414
     22 N           6.6810    0.0630   19.7100 N.3     1  UNL1       -0.1837
     23 N           7.0690   -0.1430   18.3900 N.3     1  UNL1       -0.0538
     24 N           6.2850    0.4390   17.5800 N.3     1  UNL1       -0.1152
     25 C           5.2510    1.0960   18.3360 C.3     1  UNL1        0.1093
     26 C           5.5280    0.8390   19.6860 C.3     1  UNL1        0.0932
     27 C           4.6860    1.3500   20.6990 C.3     1  UNL1        0.0190
     28 C           3.5740    2.1170   20.3540 C.3     1  UNL1        0.0015
     29 C           3.3030    2.3720   18.9820 C.3     1  UNL1        0.0016
     30 C           4.1440    1.8570   17.9840 C.3     1  UNL1        0.0205
@<TRIPOS>BOND
     1     2     1    1
     2     3     2    1
     3     4     3    1
     4     5     4    1
     5     6     5    1
     6     7     6    1
     7     8     7    1
     8     9     8    1
     9    10     9    1
    10    11    10    1
    11    12     9    1
    12    13     7    1
    13    14    13    1
    14    14     4    1
    15    15     3    1
    16    16    15    1
    17    17    16    1
    18    18    17    1
    19    19    18    1
    20    20    19    1
    21    20    16    1
    22    21     2    1
    23    22    21    1
    24    23    22    1
    25    24    23    1
    26    25    24    1
    27    26    25    1
    28    26    22    1
    29    27    26    1
    30    28    27    1
    31    29    28    1
    32    30    29    1
    33    30    25    1
