@<TRIPOS>MOLECULE
*****
 15 16 0 0 0
SMALL
GASTEIGER

@<TRIPOS>ATOM
      1 C           7.3480  -23.2860   -1.3560 C.3     1  UNL1        0.0339
      2 C           7.0380  -21.8110   -1.0340 C.3     1  UNL1        0.1351
      3 C           7.6250  -20.9070   -2.1150 C.3     1  UNL1        0.1229
      4 C           7.6260  -18.5810   -3.1330 C.2     1  UNL1        0.2507
      5 C           8.7330  -18.9420   -4.1250 C.3     1  UNL1        0.2120
      6 C           9.9630  -16.8090   -4.0850 C.ar    1  UNL1        0.0973
      7 C          10.2480  -15.7990   -4.9820 C.ar    1  UNL1        0.0427
      8 C           9.6580  -16.1590   -6.1840 C.ar    1  UNL1        0.1217
      9 C           6.0840  -19.2450   -1.2340 C.3     1  UNL1        0.1255
     10 C           5.1240  -20.3790   -0.8780 C.3     1  UNL1        0.1635
     11 N           7.1230  -19.5550   -2.1840 N.am    1  UNL1       -0.2728
     12 N           9.2460  -17.7210   -4.7180 N.ar    1  UNL1       -0.2400
     13 N           9.0560  -17.3220   -6.0090 N.ar    1  UNL1       -0.1672
     14 O           7.1750  -17.4820   -3.1520 O.2     1  UNL1       -0.2727
     15 O           5.6430  -21.6920   -0.9000 O.3     1  UNL1       -0.3527
@<TRIPOS>BOND
     1     2     1    1
     2     3     2    1
     3     5     4    1
     4     7     6   ar
     5     8     7   ar
     6    10     9    1
     7    11     9    1
     8    11     4   am
     9    11     3    1
    10    12     6   ar
    11    12     5    1
    12    13    12   ar
    13    13     8   ar
    14    14     4    2
    15    15    10    1
    16    15     2    1
