
     RDKit          3D

 24 27  0  0  0  0  0  0  0  0999 V2000
   14.1480   -1.5230   21.2020 Cl  0  0  0  0  0  0  0  0  0  0  0  0
   13.1310   -0.7030   22.3540 C   0  0  0  0  0  0  0  0  0  0  0  0
   13.7110    0.1360   23.2890 C   0  0  0  0  0  0  0  0  0  0  0  0
   12.8900    0.7880   24.1970 C   0  0  0  0  0  0  0  0  0  0  0  0
   11.5130    0.6190   24.1410 C   0  0  0  0  0  0  0  0  0  0  0  0
   11.7590   -0.8870   22.2890 C   0  0  0  0  0  0  0  0  0  0  0  0
   10.9320   -0.2000   23.1730 C   0  0  0  0  0  0  0  0  0  0  0  0
    9.4130   -0.2810   23.0090 C   0  0  1  0  0  0  0  0  0  0  0  0
    8.7200    0.3180   24.1000 O   0  0  0  0  0  0  0  0  0  0  0  0
    8.9290    0.4410   21.7370 C   0  0  0  0  0  0  0  0  0  0  0  0
    9.3900    1.4710   21.2850 O   0  0  0  0  0  0  0  0  0  0  0  0
    7.8510   -0.2360   21.2490 N   0  0  0  0  0  0  0  0  0  0  0  0
    7.6200   -1.5160   21.9410 C   0  0  0  0  0  0  0  0  0  0  0  0
    8.8850   -1.7100   22.7730 C   0  0  0  0  0  0  0  0  0  0  0  0
    6.9890    0.2320   20.2040 C   0  0  0  0  0  0  0  0  0  0  0  0
    5.8840    1.0870   20.5090 C   0  0  0  0  0  0  0  0  0  0  0  0
    5.5420    1.5080   21.8240 C   0  0  0  0  0  0  0  0  0  0  0  0
    4.4680    2.3260   22.0450 C   0  0  0  0  0  0  0  0  0  0  0  0
    3.6830    2.7670   20.9830 C   0  0  0  0  0  0  0  0  0  0  0  0
    3.9760    2.3980   19.7010 C   0  0  0  0  0  0  0  0  0  0  0  0
    5.0810    1.5530   19.4280 C   0  0  0  0  0  0  0  0  0  0  0  0
    5.4360    1.1450   18.1170 C   0  0  0  0  0  0  0  0  0  0  0  0
    6.4660    0.3570   17.8360 N   0  0  0  0  0  0  0  0  0  0  0  0
    7.2080   -0.0810   18.8670 C   0  0  0  0  0  0  0  0  0  0  0  0
  2  1  1  0
  3  2  2  0
  4  3  1  0
  5  4  2  0
  6  2  1  0
  7  6  2  0
  7  5  1  0
  8  7  1  0
  8  9  1  1
 10  8  1  0
 11 10  2  0
 12 10  1  0
 13 12  1  0
 14 13  1  0
 14  8  1  0
 15 12  1  0
 16 15  1  0
 17 16  2  0
 18 17  1  0
 19 18  2  0
 20 19  1  0
 21 20  2  0
 21 16  1  0
 22 21  1  0
 23 22  2  0
 24 23  1  0
 24 15  2  0
M  END
