@<TRIPOS>MOLECULE
*****
 24 27 0 0 0
SMALL
GASTEIGER

@<TRIPOS>ATOM
      1 CL         14.1480   -1.5230   21.2020 Cl      1  UNL1       -0.0823
      2 C          13.1310   -0.7030   22.3540 C.ar    1  UNL1        0.0574
      3 C          13.7110    0.1360   23.2890 C.ar    1  UNL1        0.0114
      4 C          12.8900    0.7880   24.1970 C.ar    1  UNL1        0.0006
      5 C          11.5130    0.6190   24.1410 C.ar    1  UNL1       -0.0014
      6 C          11.7590   -0.8870   22.2890 C.ar    1  UNL1        0.0099
      7 C          10.9320   -0.2000   23.1730 C.ar    1  UNL1        0.0143
      8 C           9.4130   -0.2810   23.0090 C.3     1  UNL1        0.2150
      9 O           8.7200    0.3180   24.1000 O.3     1  UNL1       -0.2117
     10 C           8.9290    0.4410   21.7370 C.2     1  UNL1        0.2610
     11 O           9.3900    1.4710   21.2850 O.2     1  UNL1       -0.2715
     12 N           7.8510   -0.2360   21.2490 N.am    1  UNL1       -0.2548
     13 C           7.6200   -1.5160   21.9410 C.3     1  UNL1        0.1017
     14 C           8.8850   -1.7100   22.7730 C.3     1  UNL1        0.0656
     15 C           6.9890    0.2320   20.2040 C.ar    1  UNL1        0.0731
     16 C           5.8840    1.0870   20.5090 C.ar    1  UNL1        0.0167
     17 C           5.5420    1.5080   21.8240 C.ar    1  UNL1        0.0013
     18 C           4.4680    2.3260   22.0450 C.ar    1  UNL1        0.0000
     19 C           3.6830    2.7670   20.9830 C.ar    1  UNL1        0.0001
     20 C           3.9760    2.3980   19.7010 C.ar    1  UNL1        0.0016
     21 C           5.0810    1.5530   19.4280 C.ar    1  UNL1        0.0204
     22 C           5.4360    1.1450   18.1170 C.ar    1  UNL1        0.0989
     23 N           6.4660    0.3570   17.8360 N.ar    1  UNL1       -0.2410
     24 C           7.2080   -0.0810   18.8670 C.ar    1  UNL1        0.1137
@<TRIPOS>BOND
     1     2     1    1
     2     3     2   ar
     3     4     3   ar
     4     5     4   ar
     5     6     2   ar
     6     7     6   ar
     7     7     5   ar
     8     8     7    1
     9     8     9    1
    10    10     8    1
    11    11    10    2
    12    12    10   am
    13    13    12    1
    14    14    13    1
    15    14     8    1
    16    15    12    1
    17    16    15   ar
    18    17    16   ar
    19    18    17   ar
    20    19    18   ar
    21    20    19   ar
    22    21    20   ar
    23    21    16   ar
    24    22    21   ar
    25    23    22   ar
    26    24    23   ar
    27    24    15   ar
