@<TRIPOS>MOLECULE
*****
 7 7 0 0 0
SMALL
GASTEIGER

@<TRIPOS>ATOM
      1 N           6.1580   -5.1330   19.7100 N.2     1  UNL1       -0.1430
      2 C           7.0190   -4.2520   20.0770 C.2     1  UNL1        0.1607
      3 C           6.6240   -3.3530   21.1570 C.ar    1  UNL1        0.1838
      4 N           7.4230   -2.4010   21.6810 N.ar    1  UNL1       -0.2220
      5 C           6.7150   -1.7560   22.6520 C.ar    1  UNL1        0.1213
      6 C           5.5000   -2.3400   22.6810 C.ar    1  UNL1        0.1213
      7 N           5.4320   -3.3450   21.7440 N.ar    1  UNL1       -0.2220
@<TRIPOS>BOND
     1     2     1    2
     2     3     2    1
     3     4     3   ar
     4     5     4   ar
     5     6     5   ar
     6     7     3   ar
     7     7     6   ar
