@<TRIPOS>MOLECULE
*****
 30 33 0 0 0
SMALL
GASTEIGER

@<TRIPOS>ATOM
      1 O           9.3230    1.5650   20.6100 O.3     1  UNL1       -0.2034
      2 C           8.9630    0.5470   21.2690 C.3     1  UNL1        0.2302
      3 N           9.5520    0.3020   22.4690 N.3     1  UNL1       -0.2485
      4 C           9.1970   -0.8370   23.2690 C.3     1  UNL1        0.0598
      5 C           8.2300   -0.7160   24.2790 C.3     1  UNL1        0.0175
      6 C           7.8500   -1.7740   25.1580 C.3     1  UNL1        0.0188
      7 C           8.3910   -3.0530   25.0540 C.3     1  UNL1        0.0754
      8 N           8.0160   -4.1540   25.9340 N.3     1  UNL1       -0.1907
      9 C           6.8130   -4.3050   26.6300 C.3     1  UNL1        0.2255
     10 C           6.4290   -5.4590   27.5820 C.3     1  UNL1        0.0514
     11 C           5.1660   -6.2500   27.2680 C.3     1  UNL1        0.0043
     12 O           5.9390   -3.4300   26.4840 O.3     1  UNL1       -0.2037
     13 C           9.3560   -3.1970   24.0360 C.3     1  UNL1        0.0188
     14 C           9.7360   -2.1290   23.1620 C.3     1  UNL1        0.0175
     15 C          10.6720    1.1270   22.9730 C.3     1  UNL1        0.0752
     16 C          11.8820    0.2650   23.3570 C.3     1  UNL1        0.0277
     17 C          12.0270   -0.2320   24.6030 C.3     1  UNL1        0.0589
     18 S          13.3910   -1.2370   24.7730 S.3     1  UNL1       -0.1402
     19 C          13.8090   -1.0530   23.1300 C.3     1  UNL1        0.0576
     20 C          12.9100   -0.2450   22.5200 C.3     1  UNL1        0.0139
     21 C           7.8490   -0.3690   20.6370 C.3     1  UNL1        0.1414
     22 N           7.1120    0.0810   19.5320 N.3     1  UNL1       -0.1837
     23 N           7.4810   -0.2060   18.2390 N.3     1  UNL1       -0.0538
     24 N           6.7020    0.3330   17.4130 N.3     1  UNL1       -0.1152
     25 C           5.6900    1.0770   18.1700 C.3     1  UNL1        0.1093
     26 C           6.0030    0.8890   19.5200 C.3     1  UNL1        0.0932
     27 C           5.2120    1.4750   20.5440 C.3     1  UNL1        0.0190
     28 C           4.1200    2.2470   20.2000 C.3     1  UNL1        0.0015
     29 C           3.8060    2.4500   18.8160 C.3     1  UNL1        0.0016
     30 C           4.5970    1.8630   17.8080 C.3     1  UNL1        0.0205
@<TRIPOS>BOND
     1     2     1    1
     2     3     2    1
     3     4     3    1
     4     5     4    1
     5     6     5    1
     6     7     6    1
     7     8     7    1
     8     9     8    1
     9    10     9    1
    10    11    10    1
    11    12     9    1
    12    13     7    1
    13    14    13    1
    14    14     4    1
    15    15     3    1
    16    16    15    1
    17    17    16    1
    18    18    17    1
    19    19    18    1
    20    20    19    1
    21    20    16    1
    22    21     2    1
    23    22    21    1
    24    23    22    1
    25    24    23    1
    26    25    24    1
    27    26    25    1
    28    26    22    1
    29    27    26    1
    30    28    27    1
    31    29    28    1
    32    30    29    1
    33    30    25    1
