@<TRIPOS>MOLECULE
*****
 27 31 0 0 0
SMALL
GASTEIGER

@<TRIPOS>ATOM
      1 O           8.9090    1.0920   21.1050 O.2     1  UNL1       -0.2738
      2 C           8.4160    0.0520   21.4960 C.2     1  UNL1        0.2387
      3 C           8.8090   -0.7190   22.7560 C.3     1  UNL1        0.1035
      4 C           8.0890   -0.0540   23.9540 C.3     1  UNL1        0.0606
      5 C           8.8830    1.1080   24.5120 C.3     1  UNL1        0.2062
      6 O          10.1830    0.6810   24.9430 O.3     1  UNL1       -0.4757
      7 C          10.3320   -0.7190   22.9500 C.ar    1  UNL1        0.0208
      8 C          10.9170    0.0080   23.9970 C.ar    1  UNL1        0.1350
      9 C          12.2920    0.0890   24.1460 C.ar    1  UNL1        0.0374
     10 C          13.1120   -0.5550   23.2400 C.ar    1  UNL1        0.0145
     11 C          11.1750   -1.3850   22.0600 C.ar    1  UNL1        0.0106
     12 C          12.5470   -1.2790   22.2140 C.ar    1  UNL1        0.0576
     13 CL         13.5910   -2.0750   21.0710 Cl      1  UNL1       -0.0823
     14 N           7.3810   -0.6550   20.8690 N.am    1  UNL1       -0.2063
     15 C           7.1440   -1.8990   21.4570 C.2     1  UNL1        0.2360
     16 O           6.2030   -2.6280   21.1740 O.2     1  UNL1       -0.2741
     17 C           8.2030   -2.1170   22.5030 C.3     1  UNL1        0.0989
     18 C           6.5740   -0.1110   19.8070 C.ar    1  UNL1        0.0797
     19 C           5.5380    0.8120   20.1270 C.ar    1  UNL1        0.0171
     20 C           5.0540    1.0550   21.4390 C.ar    1  UNL1        0.0013
     21 C           4.0640    1.9700   21.6680 C.ar    1  UNL1        0.0000
     22 C           3.5050    2.6850   20.6170 C.ar    1  UNL1        0.0001
     23 C           3.9270    2.4790   19.3350 C.ar    1  UNL1        0.0016
     24 C           4.9500    1.5380   19.0530 C.ar    1  UNL1        0.0204
     25 C           5.4270    1.2770   17.7440 C.ar    1  UNL1        0.0989
     26 N           6.3930    0.4120   17.4570 N.ar    1  UNL1       -0.2410
     27 C           6.9480   -0.2570   18.4750 C.ar    1  UNL1        0.1141
@<TRIPOS>BOND
     1     2     1    2
     2     3     2    1
     3     3     4    1
     4     5     4    1
     5     6     5    1
     6     7     3    1
     7     8     7   ar
     8     8     6    1
     9     9     8   ar
    10    10     9   ar
    11    11     7   ar
    12    12    11   ar
    13    12    10   ar
    14    13    12    1
    15    14     2   am
    16    15    14   am
    17    16    15    2
    18    17    15    1
    19    17     3    1
    20    18    14    1
    21    19    18   ar
    22    20    19   ar
    23    21    20   ar
    24    22    21   ar
    25    23    22   ar
    26    24    23   ar
    27    24    19   ar
    28    25    24   ar
    29    26    25   ar
    30    27    26   ar
    31    27    18   ar
