@<TRIPOS>MOLECULE
*****
 12 12 0 0 0
SMALL
GASTEIGER

@<TRIPOS>ATOM
      1 N           6.2080   -5.0310   19.6800 N.2     1  UNL1       -0.1430
      2 C           7.1280   -4.1620   19.8980 C.2     1  UNL1        0.1609
      3 C           7.0210   -3.3860   21.1840 C.ar    1  UNL1        0.1893
      4 N           8.1210   -2.6970   21.5370 N.ar    1  UNL1       -0.1906
      5 C           8.0340   -1.9990   22.6620 C.ar    1  UNL1        0.2311
      6 O           9.1220   -1.3560   23.1370 O.3     1  UNL1       -0.4560
      7 C          10.3300   -1.4090   22.3660 C.3     1  UNL1        0.2542
      8 C           6.8890   -1.9500   23.4430 C.ar    1  UNL1        0.1153
      9 N           5.8660   -3.4500   21.8780 N.ar    1  UNL1       -0.1906
     10 C           5.8450   -2.7570   23.0140 C.ar    1  UNL1        0.2311
     11 O           4.8520   -2.8940   23.9190 O.3     1  UNL1       -0.4560
     12 C           3.7780   -3.7880   23.6140 C.3     1  UNL1        0.2542
@<TRIPOS>BOND
     1     2     1    2
     2     3     2    1
     3     4     3   ar
     4     5     4   ar
     5     6     5    1
     6     7     6    1
     7     8     5   ar
     8     9     3   ar
     9    10     9   ar
    10    10     8   ar
    11    11    10    1
    12    12    11    1
