@<TRIPOS>MOLECULE
*****
 21 23 0 0 0
SMALL
GASTEIGER

@<TRIPOS>ATOM
      1 O           8.8900    0.8130   21.3730 O.2     1  UNL1       -0.2726
      2 C           8.4250   -0.3100   21.5860 C.2     1  UNL1        0.2500
      3 C           9.1110   -1.3040   22.5050 C.3     1  UNL1        0.1135
      4 C          10.5150   -0.9060   22.9090 C.ar    1  UNL1       -0.0122
      5 C          10.7320   -0.0410   23.9740 C.ar    1  UNL1       -0.0037
      6 C          11.9990    0.4600   24.2370 C.ar    1  UNL1        0.0006
      7 C          13.0710    0.1020   23.4370 C.ar    1  UNL1        0.0114
      8 C          11.6050   -1.3160   22.1470 C.ar    1  UNL1        0.0076
      9 C          12.8590   -0.7970   22.4120 C.ar    1  UNL1        0.0574
     10 CL         14.2020   -1.2840   21.4140 Cl      1  UNL1       -0.0823
     11 N           7.2910   -0.7740   21.0070 N.am    1  UNL1       -0.1773
     12 C           6.5310   -0.1920   19.9700 C.ar    1  UNL1        0.0939
     13 C           5.3980    0.6190   20.3150 C.ar    1  UNL1        0.0361
     14 C           4.9050    0.7750   21.6300 C.ar    1  UNL1        0.0045
     15 C           3.8350    1.5890   21.8610 C.ar    1  UNL1        0.0207
     16 C           3.2530    2.2570   20.7820 C.ar    1  UNL1        0.0989
     17 N           3.6610    2.1490   19.5250 N.ar    1  UNL1       -0.2422
     18 C           4.7320    1.3230   19.2770 C.ar    1  UNL1        0.1017
     19 C           5.2440    1.1240   17.9640 C.ar    1  UNL1        0.1180
     20 N           6.2730    0.3610   17.6340 N.ar    1  UNL1       -0.2394
     21 C           6.8980   -0.2810   18.6270 C.ar    1  UNL1        0.1155
@<TRIPOS>BOND
     1     2     1    2
     2     3     2    1
     3     4     3    1
     4     5     4   ar
     5     6     5   ar
     6     7     6   ar
     7     8     4   ar
     8     9     8   ar
     9     9     7   ar
    10    10     9    1
    11    11     2   am
    12    12    11    1
    13    13    12   ar
    14    14    13   ar
    15    15    14   ar
    16    16    15   ar
    17    17    16   ar
    18    18    17   ar
    19    18    13   ar
    20    19    18   ar
    21    20    19   ar
    22    21    20   ar
    23    21    12   ar
