@<TRIPOS>MOLECULE
*****
 22 24 0 0 0
SMALL
GASTEIGER

@<TRIPOS>ATOM
      1 O           9.0940    1.1560   21.2130 O.2     1  UNL1       -0.2727
      2 C           8.8800    0.0380   21.6640 C.2     1  UNL1        0.2509
      3 C           7.9580   -0.9300   20.9290 C.3     1  UNL1        0.2137
      4 N           7.2430   -0.2690   19.8590 N.ar    1  UNL1       -0.2223
      5 C           6.0750    0.4330   19.9040 C.ar    1  UNL1        0.0994
      6 C           5.2600    0.8750   20.9400 C.ar    1  UNL1        0.0204
      7 C           4.1890    1.6950   20.6090 C.ar    1  UNL1        0.0016
      8 C           3.9350    2.0420   19.2820 C.ar    1  UNL1        0.0017
      9 C           4.7450    1.5830   18.2550 C.ar    1  UNL1        0.0225
     10 C           5.8330    0.7750   18.5780 C.ar    1  UNL1        0.1217
     11 N           6.8530    0.2740   17.8020 N.ar    1  UNL1       -0.1288
     12 N           7.6930   -0.3440   18.5810 N.ar    1  UNL1       -0.0634
     13 N           9.4250   -0.3770   22.8290 N.am    1  UNL1       -0.2720
     14 C           8.9710   -1.5330   23.6000 C.3     1  UNL1        0.1152
     15 C          10.5900    0.3130   23.3720 C.3     1  UNL1        0.1203
     16 C          11.8030   -0.5850   23.3850 C.ar    1  UNL1       -0.0015
     17 C          12.2720   -1.1180   24.5850 C.ar    1  UNL1        0.0088
     18 C          13.3050   -2.0370   24.5670 C.ar    1  UNL1        0.0574
     19 CL         13.8280   -2.7500   26.0770 Cl      1  UNL1       -0.0823
     20 C          13.9120   -2.4240   23.3870 C.ar    1  UNL1        0.0114
     21 C          13.4600   -1.8750   22.1920 C.ar    1  UNL1        0.0006
     22 C          12.4130   -0.9650   22.1950 C.ar    1  UNL1       -0.0026
@<TRIPOS>BOND
     1     2     1    2
     2     3     2    1
     3     4     3    1
     4     5     4   ar
     5     6     5   ar
     6     7     6   ar
     7     8     7   ar
     8     9     8   ar
     9    10     9   ar
    10    10     5   ar
    11    11    10   ar
    12    12    11   ar
    13    12     4   ar
    14    13     2   am
    15    14    13    1
    16    15    13    1
    17    16    15    1
    18    17    16   ar
    19    18    17   ar
    20    19    18    1
    21    20    18   ar
    22    21    20   ar
    23    22    21   ar
    24    22    16   ar
