@<TRIPOS>MOLECULE
*****
 25 28 0 0 0
SMALL
GASTEIGER

@<TRIPOS>ATOM
      1 CL         13.9970   -1.7320   20.9030 Cl      1  UNL1       -0.0823
      2 C          12.9710   -0.8670   22.0040 C.ar    1  UNL1        0.0576
      3 C          13.5280    0.0570   22.8620 C.ar    1  UNL1        0.0145
      4 C          12.7150    0.7140   23.7670 C.ar    1  UNL1        0.0374
      5 C          11.6210   -1.1420   22.0080 C.ar    1  UNL1        0.0106
      6 C          10.7860   -0.4730   22.8980 C.ar    1  UNL1        0.0212
      7 C          11.3550    0.4430   23.7800 C.ar    1  UNL1        0.1350
      8 O          10.6060    1.1200   24.7060 O.3     1  UNL1       -0.4757
      9 C           9.5050    0.3510   25.2110 C.3     1  UNL1        0.2062
     10 C           8.5440   -0.0800   24.1270 C.3     1  UNL1        0.0610
     11 C           9.2820   -0.6450   22.8760 C.3     1  UNL1        0.1074
     12 C           8.7790    0.0680   21.6190 C.2     1  UNL1        0.2495
     13 O           9.3440    1.0570   21.1560 O.2     1  UNL1       -0.2726
     14 N           7.6540   -0.4630   21.0930 N.am    1  UNL1       -0.1758
     15 C           6.8900    0.0610   20.0240 C.ar    1  UNL1        0.1098
     16 C           7.4110    0.0670   18.7330 C.ar    1  UNL1        0.1170
     17 N           6.7880    0.6180   17.6880 N.ar    1  UNL1       -0.2393
     18 C           5.5880    1.1700   17.8980 C.ar    1  UNL1        0.1196
     19 C           5.6310    0.6380   20.2270 C.ar    1  UNL1        0.1000
     20 N           4.7630    0.7520   21.3220 N.ar    1  UNL1       -0.2752
     21 C           5.0130    0.3430   22.7030 C.3     1  UNL1        0.1352
     22 C           4.9710    1.1940   19.1450 C.ar    1  UNL1        0.1222
     23 N           3.7300    1.6300   19.5900 N.ar    1  UNL1       -0.1892
     24 C           3.5860    1.3610   20.9200 C.ar    1  UNL1        0.3503
     25 O           2.6150    1.5860   21.6270 O.2     1  UNL1       -0.2444
@<TRIPOS>BOND
     1     2     1    1
     2     3     2   ar
     3     4     3   ar
     4     5     2   ar
     5     6     5   ar
     6     7     6   ar
     7     7     4   ar
     8     8     7    1
     9     9     8    1
    10    10     9    1
    11    11    10    1
    12    11     6    1
    13    11    12    1
    14    13    12    2
    15    14    12   am
    16    15    14    1
    17    16    15   ar
    18    17    16   ar
    19    18    17   ar
    20    19    15   ar
    21    20    19   ar
    22    21    20    1
    23    22    19   ar
    24    22    18   ar
    25    23    22   ar
    26    24    23   ar
    27    24    20   ar
    28    25    24    2
