@<TRIPOS>MOLECULE
*****
 21 23 0 0 0
SMALL
GASTEIGER

@<TRIPOS>ATOM
      1 O           9.2460    0.7810   21.0870 O.2     1  UNL1       -0.2726
      2 C           8.8390   -0.3660   21.2580 C.2     1  UNL1        0.2516
      3 C           9.6260   -1.3820   22.0630 C.3     1  UNL1        0.1328
      4 C          10.9580   -0.8620   22.5530 C.ar    1  UNL1        0.0692
      5 C          12.1520   -1.2170   21.9360 C.ar    1  UNL1        0.0153
      6 C          13.3280   -0.6270   22.3710 C.ar    1  UNL1        0.0037
      7 C          13.2980    0.2780   23.4190 C.ar    1  UNL1        0.0308
      8 N          10.9090   -0.0070   23.5890 N.ar    1  UNL1       -0.2378
      9 C          12.0610    0.5150   23.9920 C.ar    1  UNL1        0.1379
     10 CL         11.9710    1.5010   25.4210 Cl      1  UNL1       -0.0613
     11 N           7.6760   -0.8320   20.7560 N.am    1  UNL1       -0.1773
     12 C           6.8200   -0.2110   19.8240 C.ar    1  UNL1        0.0925
     13 C           5.6930    0.5250   20.3030 C.ar    1  UNL1        0.0184
     14 C           5.3530    0.6470   21.6770 C.ar    1  UNL1        0.0014
     15 C           4.2740    1.3860   22.0700 C.ar    1  UNL1        0.0000
     16 C           3.4820    2.0380   21.1340 C.ar    1  UNL1        0.0001
     17 C           3.7640    1.9470   19.8000 C.ar    1  UNL1        0.0016
     18 C           4.8740    1.1920   19.3480 C.ar    1  UNL1        0.0204
     19 C           5.2320    1.0820   17.9830 C.ar    1  UNL1        0.0989
     20 N           6.2810    0.3990   17.5400 N.ar    1  UNL1       -0.2410
     21 C           7.0390   -0.2290   18.4480 C.ar    1  UNL1        0.1154
@<TRIPOS>BOND
     1     2     1    2
     2     3     2    1
     3     4     3    1
     4     5     4   ar
     5     6     5   ar
     6     7     6   ar
     7     8     4   ar
     8     9     8   ar
     9     9     7   ar
    10    10     9    1
    11    11     2   am
    12    12    11    1
    13    13    12   ar
    14    14    13   ar
    15    15    14   ar
    16    16    15   ar
    17    17    16   ar
    18    18    17   ar
    19    18    13   ar
    20    19    18   ar
    21    20    19   ar
    22    21    20   ar
    23    21    12   ar
