@<TRIPOS>MOLECULE
*****
 28 31 0 0 0
SMALL
GASTEIGER

@<TRIPOS>ATOM
      1 O           9.0860    1.1740   21.2600 O.2     1  UNL1       -0.2745
      2 C           8.8580    0.0350   21.6440 C.2     1  UNL1        0.2304
      3 C           7.8990   -0.8620   20.8820 C.3     1  UNL1        0.1131
      4 C           7.0070   -0.1230   19.8990 C.ar    1  UNL1        0.0061
      5 C           5.9350    0.6980   20.3550 C.ar    1  UNL1       -0.0005
      6 C           5.6550    0.9260   21.7290 C.ar    1  UNL1       -0.0002
      7 C           4.6340    1.7490   22.1100 C.ar    1  UNL1       -0.0000
      8 C           3.8370    2.3750   21.1620 C.ar    1  UNL1        0.0000
      9 C           4.0590    2.1810   19.8270 C.ar    1  UNL1        0.0015
     10 C           5.1130    1.3430   19.3880 C.ar    1  UNL1        0.0189
     11 C           5.4190    1.1240   18.0220 C.ar    1  UNL1        0.0988
     12 N           6.4250    0.3680   17.5990 N.ar    1  UNL1       -0.2426
     13 C           7.1820   -0.2340   18.5290 C.ar    1  UNL1        0.0951
     14 N           9.4170   -0.4680   22.7710 N.am    1  UNL1       -0.2746
     15 C          10.2770    0.3680   23.5900 C.3     1  UNL1        0.1265
     16 C          11.7460    0.3670   23.2890 C.ar    1  UNL1        0.0273
     17 S          12.4310   -0.7330   22.1640 S.2     1  UNL1       -0.0891
     18 C          13.9780   -0.0800   22.3700 C.ar    1  UNL1        0.0352
     19 C          13.9780    0.9320   23.2590 C.ar    1  UNL1        0.0072
     20 C          12.7040    1.1990   23.8000 C.ar    1  UNL1        0.0044
     21 C           9.1560   -1.8270   23.2730 C.3     1  UNL1        0.0938
     22 C           8.2460   -1.7490   24.4930 C.3     1  UNL1        0.0215
     23 C           8.2340   -2.8680   25.5490 C.3     1  UNL1        0.0017
     24 C           7.0490   -3.8190   25.3950 C.3     1  UNL1        0.0001
     25 C           6.9940   -4.8560   26.5200 C.3     1  UNL1        0.0000
     26 C           8.2950   -5.6460   26.6220 C.3     1  UNL1        0.0000
     27 C           9.4960   -4.7160   26.7450 C.3     1  UNL1        0.0000
     28 C           9.5260   -3.6840   25.6180 C.3     1  UNL1        0.0001
@<TRIPOS>BOND
     1     2     1    2
     2     3     2    1
     3     4     3    1
     4     5     4   ar
     5     6     5   ar
     6     7     6   ar
     7     8     7   ar
     8     9     8   ar
     9    10     9   ar
    10    10     5   ar
    11    11    10   ar
    12    12    11   ar
    13    13    12   ar
    14    13     4   ar
    15    14     2   am
    16    15    14    1
    17    16    15    1
    18    17    16   ar
    19    18    17   ar
    20    19    18   ar
    21    20    19   ar
    22    20    16   ar
    23    21    14    1
    24    22    21    1
    25    23    22    1
    26    24    23    1
    27    25    24    1
    28    26    25    1
    29    27    26    1
    30    28    27    1
    31    28    23    1
