@<TRIPOS>MOLECULE
*****
 4 3 0 0 0
SMALL
GASTEIGER

@<TRIPOS>ATOM
      1 S           7.6560   -5.5220   22.6920 S.3     1  UNL1        0.0000
      2 ZN          8.9300   -3.9980   21.5580 Zn      1  UNL1        0.0000
      3 S           8.2420   -2.6280   23.2600 S.3     1  UNL1        0.0000
      4 S           8.3670   -3.5040   19.4030 S.3     1  UNL1        0.0000
@<TRIPOS>BOND
     1     2     1    1
     2     3     2    1
     3     2     4    1
