@<TRIPOS>MOLECULE
*****
 24 27 0 0 0
SMALL
GASTEIGER

@<TRIPOS>ATOM
      1 O           8.8550    1.0730   20.9950 O.2     1  UNL1       -0.2742
      2 C           8.2830    0.1760   21.5940 C.2     1  UNL1        0.2330
      3 C           8.6730   -0.1710   23.0230 C.3     1  UNL1        0.0993
      4 C          10.1720   -0.3870   23.1240 C.ar    1  UNL1       -0.0138
      5 C          10.8970    0.1720   24.1680 C.ar    1  UNL1       -0.0029
      6 C          12.2440   -0.0930   24.3210 C.ar    1  UNL1        0.0111
      7 C          10.8370   -1.1930   22.2100 C.ar    1  UNL1       -0.0029
      8 C          12.1830   -1.4760   22.3550 C.ar    1  UNL1        0.0111
      9 C          12.8660   -0.9410   23.4260 C.ar    1  UNL1        0.0577
     10 CL         14.5070   -1.4420   23.7270 Cl      1  UNL1       -0.0822
     11 N           7.2450   -0.5200   21.0330 N.am    1  UNL1       -0.2569
     12 C           6.5990   -1.7220   21.6030 C.3     1  UNL1        0.0983
     13 C           7.4350   -2.3530   22.6940 C.3     1  UNL1        0.0227
     14 C           7.8660   -1.2990   23.7050 C.3     1  UNL1        0.0153
     15 C           6.5060    0.0640   19.9560 C.ar    1  UNL1        0.0730
     16 C           5.3760    0.8990   20.2070 C.ar    1  UNL1        0.0167
     17 C           4.9130    1.2500   21.5040 C.ar    1  UNL1        0.0013
     18 C           3.8240    2.0570   21.6670 C.ar    1  UNL1        0.0000
     19 C           3.1420    2.5560   20.5700 C.ar    1  UNL1        0.0001
     20 C           3.5530    2.2620   19.3040 C.ar    1  UNL1        0.0016
     21 C           4.6800    1.4310   19.0860 C.ar    1  UNL1        0.0204
     22 C           5.1700    1.1170   17.7980 C.ar    1  UNL1        0.0989
     23 N           6.2300    0.3570   17.5700 N.ar    1  UNL1       -0.2410
     24 C           6.8640   -0.1540   18.6320 C.ar    1  UNL1        0.1137
@<TRIPOS>BOND
     1     2     1    2
     2     3     2    1
     3     3     4    1
     4     5     4   ar
     5     6     5   ar
     6     7     4   ar
     7     8     7   ar
     8     9     8   ar
     9     9     6   ar
    10    10     9    1
    11    11     2   am
    12    12    11    1
    13    13    12    1
    14    14    13    1
    15    14     3    1
    16    15    11    1
    17    16    15   ar
    18    17    16   ar
    19    18    17   ar
    20    19    18   ar
    21    20    19   ar
    22    21    20   ar
    23    21    16   ar
    24    22    21   ar
    25    23    22   ar
    26    24    23   ar
    27    24    15   ar
