@<TRIPOS>MOLECULE
*****
 11 12 0 0 0
SMALL
GASTEIGER

@<TRIPOS>ATOM
      1 C           5.7530   -3.3970   23.5280 C.ar    1  UNL1        0.0815
      2 C           5.9920   -4.1410   22.3540 C.ar    1  UNL1        0.0224
      3 C           5.2770   -5.3780   22.4900 C.ar    1  UNL1        0.0222
      4 O           6.2320   -4.9850   19.5690 O.2     1  UNL1       -0.2831
      5 C           6.3930   -2.1870   23.7770 C.ar    1  UNL1        0.0191
      6 N           4.9070   -4.1420   24.3150 N.ar    1  UNL1       -0.2438
      7 C           7.5680   -2.4310   21.6820 C.ar    1  UNL1        0.0034
      8 C           6.8960   -3.6240   21.4100 C.ar    1  UNL1        0.0437
      9 C           7.3140   -1.7230   22.8490 C.ar    1  UNL1        0.0016
     10 C           7.0470   -4.2550   20.0690 C.2     1  UNL1        0.2342
     11 C           4.6370   -5.3300   23.6840 C.ar    1  UNL1        0.0989
@<TRIPOS>BOND
     1     2     1   ar
     2     3     2   ar
     3     5     1   ar
     4     6     1   ar
     5     8     7   ar
     6     8     2   ar
     7     9     7   ar
     8     9     5   ar
     9    10     8    1
    10    10     4    2
    11    11     6   ar
    12    11     3   ar
