@<TRIPOS>MOLECULE
*****
 29 32 0 0 0
SMALL
GASTEIGER

@<TRIPOS>ATOM
      1 O           9.2640    0.9690   21.1230 O.2     1  UNL1       -0.2742
      2 C           8.8990   -0.0640   21.6670 C.2     1  UNL1        0.2341
      3 C           7.9000   -0.9770   20.9790 C.3     1  UNL1        0.1134
      4 C           7.0420   -0.2460   19.9660 C.ar    1  UNL1        0.0061
      5 C           5.9090    0.5080   20.3760 C.ar    1  UNL1       -0.0005
      6 C           5.5030    0.6300   21.7310 C.ar    1  UNL1       -0.0002
      7 C           4.4220    1.3910   22.0750 C.ar    1  UNL1       -0.0000
      8 C           3.6970    2.0680   21.1070 C.ar    1  UNL1        0.0000
      9 C           4.0370    1.9710   19.7880 C.ar    1  UNL1        0.0015
     10 C           5.1470    1.1860   19.3870 C.ar    1  UNL1        0.0189
     11 C           5.5580    1.0470   18.0410 C.ar    1  UNL1        0.0988
     12 N           6.6180    0.3460   17.6600 N.ar    1  UNL1       -0.2426
     13 C           7.3290   -0.2710   18.6150 C.ar    1  UNL1        0.0951
     14 N           9.3780   -0.4420   22.8890 N.am    1  UNL1       -0.2541
     15 C          10.4020    0.3940   23.5080 C.3     1  UNL1        0.1253
     16 C          11.8020   -0.0140   23.1280 C.ar    1  UNL1        0.0050
     17 C          12.0540   -0.9300   22.1460 C.ar    1  UNL1        0.0328
     18 S          13.7140   -1.2760   21.9840 S.2     1  UNL1       -0.0862
     19 C          14.1150   -0.1670   23.2440 C.ar    1  UNL1        0.0352
     20 C          12.9990    0.4280   23.7530 C.ar    1  UNL1        0.0049
     21 C           8.9600   -1.6250   23.5860 C.ar    1  UNL1        0.0542
     22 C           8.0680   -1.5280   24.6500 C.ar    1  UNL1        0.0162
     23 C           7.7970   -2.6300   25.4430 C.ar    1  UNL1        0.0158
     24 C           9.5460   -2.8570   23.3020 C.ar    1  UNL1        0.0162
     25 C           9.2710   -3.9650   24.0880 C.ar    1  UNL1        0.0158
     26 C           8.4060   -3.8700   25.1880 C.ar    1  UNL1        0.0480
     27 N           8.1960   -4.9570   26.0240 N.pl3   1  UNL1       -0.3041
     28 C           9.2540   -5.9330   26.2320 C.3     1  UNL1        0.1122
     29 C           7.3170   -4.8520   27.1810 C.3     1  UNL1        0.1122
@<TRIPOS>BOND
     1     2     1    2
     2     3     2    1
     3     4     3    1
     4     5     4   ar
     5     6     5   ar
     6     7     6   ar
     7     8     7   ar
     8     9     8   ar
     9    10     9   ar
    10    10     5   ar
    11    11    10   ar
    12    12    11   ar
    13    13    12   ar
    14    13     4   ar
    15    14     2   am
    16    15    14    1
    17    16    15    1
    18    17    16   ar
    19    18    17   ar
    20    19    18   ar
    21    20    19   ar
    22    20    16   ar
    23    21    14    1
    24    22    21   ar
    25    23    22   ar
    26    24    21   ar
    27    25    24   ar
    28    26    25   ar
    29    26    23   ar
    30    27    26    1
    31    28    27    1
    32    29    27    1
