@<TRIPOS>MOLECULE
*****
 33 37 0 0 0
SMALL
GASTEIGER

@<TRIPOS>ATOM
      1 C           7.0830   -4.0060   23.2490 C.3     1  UNL1        0.0028
      2 C           6.9290   -0.1820   18.7620 C.3     1  UNL1        0.1046
      3 C           4.9530    0.9960   18.0290 C.3     1  UNL1        0.0888
      4 N           7.2490   -0.8740   21.0830 N.3     1  UNL1       -0.2483
      5 C           6.4240   -0.2060   20.0720 C.3     1  UNL1        0.0771
      6 C          11.7230   -1.3550   22.8980 C.3     1  UNL1        0.0165
      7 C          12.9960   -0.9190   23.2740 C.3     1  UNL1        0.0823
      8 C          13.2410    0.4320   23.5030 C.3     1  UNL1        0.0458
      9 C          12.2000    1.3550   23.3640 C.3     1  UNL1        0.1165
     10 C          11.5280    3.6540   23.2000 C.3     1  UNL1        0.1420
     11 C          12.0780    5.0340   23.6360 C.3     1  UNL1        0.0297
     12 C          10.9120    0.9370   22.9910 C.3     1  UNL1        0.0298
     13 C           6.7610   -2.0650   21.6360 C.3     1  UNL1        0.0743
     14 C           5.9090   -6.1290   23.3490 C.3     1  UNL1        0.0015
     15 C           6.1830   -6.2190   24.7190 C.3     1  UNL1        0.0000
     16 C          10.6770   -0.4280   22.7570 C.3     1  UNL1        0.0075
     17 C           9.2930   -0.9790   22.3440 C.3     1  UNL1        0.0464
     18 C           6.8990   -5.2040   25.3610 C.3     1  UNL1        0.0000
     19 C           7.3340   -4.0940   24.6250 C.3     1  UNL1        0.0001
     20 C           8.8330   -2.1700   22.9210 C.3     1  UNL1        0.0054
     21 C           8.4940   -0.3360   21.4080 C.3     1  UNL1        0.2125
     22 C           6.3540   -5.0220   22.6110 C.3     1  UNL1        0.0191
     23 C           6.0210   -4.9890   21.1180 C.3     1  UNL1        0.1093
     24 C          13.4830    5.3380   23.0790 C.3     1  UNL1        0.0026
     25 C          12.2500    6.1110   22.5680 C.3     1  UNL1        0.0026
     26 C           4.4580    0.9750   19.3400 C.3     1  UNL1        0.0202
     27 C           5.1850    0.3670   20.3760 C.3     1  UNL1        0.0190
     28 C           7.5950   -2.7130   22.5560 C.3     1  UNL1        0.0162
     29 N           6.1950    0.4250   17.7420 N.3     1  UNL1       -0.2166
     30 N           5.7620   -4.9730   19.9970 N.3     1  UNL1       -0.1314
     31 O           8.9040    0.8650   20.8220 O.3     1  UNL1       -0.2050
     32 O          12.5030    2.7090   23.6060 O.3     1  UNL1       -0.3562
     33 CL         14.3240   -2.0900   23.4730 Cl      1  UNL1       -0.1149
@<TRIPOS>BOND
     1     5     4    1
     2     5     2    1
     3     7     6    1
     4     8     7    1
     5     9     8    1
     6    11    10    1
     7    12     9    1
     8    13     4    1
     9    15    14    1
    10    16    12    1
    11    16     6    1
    12    17    16    1
    13    18    15    1
    14    19    18    1
    15     1    19    1
    16    20    17    1
    17    21     4    1
    18    21    17    1
    19    22    14    1
    20    22     1    1
    21    23    22    1
    22    24    11    1
    23    25    24    1
    24    25    11    1
    25    26     3    1
    26    27    26    1
    27    27     5    1
    28    28    13    1
    29    28    20    1
    30    28     1    1
    31    29     3    1
    32    29     2    1
    33    30    23    1
    34    31    21    1
    35    32    10    1
    36    32     9    1
    37    33     7    1
