@<TRIPOS>MOLECULE
*****
 24 27 0 0 0
SMALL
GASTEIGER

@<TRIPOS>ATOM
      1 O           9.1740    1.0110   20.9090 O.2     1  UNL1       -0.2726
      2 C           8.6640   -0.0290   21.3290 C.2     1  UNL1        0.2507
      3 C           9.2350   -0.7970   22.5250 C.3     1  UNL1        0.1179
      4 C           8.4450   -0.3780   23.7720 C.3     1  UNL1        0.1026
      5 N           8.7470    1.0140   24.1210 N.3     1  UNL1       -0.2124
      6 C          10.1360    1.1780   24.5440 C.3     1  UNL1        0.1147
      7 C          10.7130   -0.5130   22.7310 C.ar    1  UNL1       -0.0142
      8 C          11.1200    0.4790   23.6390 C.ar    1  UNL1       -0.0082
      9 C          12.4740    0.7910   23.7440 C.ar    1  UNL1       -0.0023
     10 C          13.4190    0.1370   22.9790 C.ar    1  UNL1        0.0111
     11 C          11.6770   -1.1960   21.9860 C.ar    1  UNL1        0.0074
     12 C          13.0070   -0.8430   22.1020 C.ar    1  UNL1        0.0574
     13 CL         14.1670   -1.5460   21.0110 Cl      1  UNL1       -0.0823
     14 N           7.5270   -0.5520   20.8090 N.am    1  UNL1       -0.1773
     15 C           6.7440   -0.0260   19.7590 C.ar    1  UNL1        0.0925
     16 C           5.6110    0.7870   20.0800 C.ar    1  UNL1        0.0184
     17 C           5.1680    1.0370   21.4040 C.ar    1  UNL1        0.0014
     18 C           4.1250    1.8860   21.6490 C.ar    1  UNL1        0.0000
     19 C           3.4680    2.5200   20.6050 C.ar    1  UNL1        0.0001
     20 C           3.8530    2.3110   19.3130 C.ar    1  UNL1        0.0016
     21 C           4.9310    1.4410   19.0150 C.ar    1  UNL1        0.0204
     22 C           5.4060    1.2240   17.6990 C.ar    1  UNL1        0.0989
     23 N           6.4430    0.4580   17.3990 N.ar    1  UNL1       -0.2410
     24 C           7.0830   -0.1420   18.4100 C.ar    1  UNL1        0.1154
@<TRIPOS>BOND
     1     2     1    2
     2     3     2    1
     3     4     3    1
     4     5     4    1
     5     6     5    1
     6     7     3    1
     7     8     7   ar
     8     8     6    1
     9     9     8   ar
    10    10     9   ar
    11    11     7   ar
    12    12    11   ar
    13    12    10   ar
    14    13    12    1
    15    14     2   am
    16    15    14    1
    17    16    15   ar
    18    17    16   ar
    19    18    17   ar
    20    19    18   ar
    21    20    19   ar
    22    21    20   ar
    23    21    16   ar
    24    22    21   ar
    25    23    22   ar
    26    24    23   ar
    27    24    15   ar
