
     RDKit          3D

 20 22  0  0  0  0  0  0  0  0999 V2000
    8.9740    0.9790   21.3800 O   0  0  0  0  0  0  0  0  0  0  0  0
    8.6640   -0.1490   21.7720 C   0  0  0  0  0  0  0  0  0  0  0  0
    9.3750   -0.8120   22.9390 C   0  0  0  0  0  0  0  0  0  0  0  0
   10.8500   -0.4930   23.0610 C   0  0  0  0  0  0  0  0  0  0  0  0
   11.2910    0.5180   23.9080 C   0  0  0  0  0  0  0  0  0  0  0  0
   12.6270    0.8890   23.9400 C   0  0  0  0  0  0  0  0  0  0  0  0
   13.5490    0.2560   23.1230 C   0  0  0  0  0  0  0  0  0  0  0  0
   11.7870   -1.1620   22.2750 C   0  0  0  0  0  0  0  0  0  0  0  0
   13.1150   -0.7680   22.3040 C   0  0  0  0  0  0  0  0  0  0  0  0
   14.2560   -1.5490   21.2430 Cl  0  0  0  0  0  0  0  0  0  0  0  0
    7.6580   -0.8720   21.2370 N   0  0  0  0  0  0  0  0  0  0  0  0
    6.9610   -0.3690   20.1360 N   0  0  0  0  0  0  0  0  0  0  0  0
    5.8240    0.4470   20.1830 C   0  0  0  0  0  0  0  0  0  0  0  0
    5.5840    0.7770   18.8450 C   0  0  0  0  0  0  0  0  0  0  0  0
    6.5150    0.1460   18.0110 N   0  0  0  0  0  0  0  0  0  0  0  0
    7.2980   -0.5140   18.8280 C   0  0  0  0  0  0  0  0  0  0  0  0
    5.0440    0.9430   21.2180 C   0  0  0  0  0  0  0  0  0  0  0  0
    4.0120    1.8130   20.8880 C   0  0  0  0  0  0  0  0  0  0  0  0
    3.7780    2.1810   19.5600 C   0  0  0  0  0  0  0  0  0  0  0  0
    4.5540    1.6620   18.5280 C   0  0  0  0  0  0  0  0  0  0  0  0
  2  1  2  0
  3  2  1  0
  4  3  1  0
  5  4  2  0
  6  5  1  0
  7  6  2  0
  8  4  1  0
  9  8  2  0
  9  7  1  0
 10  9  1  0
 11  2  1  0
 12 11  1  0
 13 12  1  0
 14 13  2  0
 15 14  1  0
 16 15  2  0
 16 12  1  0
 17 13  1  0
 18 17  2  0
 19 18  1  0
 20 19  2  0
 20 14  1  0
M  END
