@<TRIPOS>MOLECULE
*****
 20 22 0 0 0
SMALL
GASTEIGER

@<TRIPOS>ATOM
      1 O           8.9740    0.9790   21.3800 O.2     1  UNL1       -0.2712
      2 C           8.6640   -0.1490   21.7720 C.2     1  UNL1        0.2658
      3 C           9.3750   -0.8120   22.9390 C.3     1  UNL1        0.1150
      4 C          10.8500   -0.4930   23.0610 C.ar    1  UNL1       -0.0121
      5 C          11.2910    0.5180   23.9080 C.ar    1  UNL1       -0.0037
      6 C          12.6270    0.8890   23.9400 C.ar    1  UNL1        0.0006
      7 C          13.5490    0.2560   23.1230 C.ar    1  UNL1        0.0114
      8 C          11.7870   -1.1620   22.2750 C.ar    1  UNL1        0.0076
      9 C          13.1150   -0.7680   22.3040 C.ar    1  UNL1        0.0574
     10 CL         14.2560   -1.5490   21.2430 Cl      1  UNL1       -0.0823
     11 N           7.6580   -0.8720   21.2370 N.am    1  UNL1       -0.0947
     12 N           6.9610   -0.3690   20.1360 N.ar    1  UNL1       -0.2145
     13 C           5.8240    0.4470   20.1830 C.ar    1  UNL1        0.1001
     14 C           5.5840    0.7770   18.8450 C.ar    1  UNL1        0.1005
     15 N           6.5150    0.1460   18.0110 N.ar    1  UNL1       -0.2226
     16 C           7.2980   -0.5140   18.8280 C.ar    1  UNL1        0.1983
     17 C           5.0440    0.9430   21.2180 C.ar    1  UNL1        0.0206
     18 C           4.0120    1.8130   20.8880 C.ar    1  UNL1        0.0016
     19 C           3.7780    2.1810   19.5600 C.ar    1  UNL1        0.0016
     20 C           4.5540    1.6620   18.5280 C.ar    1  UNL1        0.0207
@<TRIPOS>BOND
     1     2     1    2
     2     3     2    1
     3     4     3    1
     4     5     4   ar
     5     6     5   ar
     6     7     6   ar
     7     8     4   ar
     8     9     8   ar
     9     9     7   ar
    10    10     9    1
    11    11     2   am
    12    12    11    1
    13    13    12   ar
    14    14    13   ar
    15    15    14   ar
    16    16    15   ar
    17    16    12   ar
    18    17    13   ar
    19    18    17   ar
    20    19    18   ar
    21    20    19   ar
    22    20    14   ar
