@<TRIPOS>MOLECULE
*****
 21 23 0 0 0
SMALL
GASTEIGER

@<TRIPOS>ATOM
      1 O           9.0340    0.9400   21.0070 O.2     1  UNL1       -0.2726
      2 C           8.5240   -0.1200   21.3560 C.2     1  UNL1        0.2500
      3 C           9.0600   -0.9190   22.5290 C.3     1  UNL1        0.1135
      4 C          10.5320   -0.6670   22.7580 C.ar    1  UNL1       -0.0122
      5 C          10.9620    0.2350   23.7230 C.ar    1  UNL1       -0.0037
      6 C          12.3060    0.5580   23.8440 C.ar    1  UNL1        0.0006
      7 C          13.2440   -0.0350   23.0130 C.ar    1  UNL1        0.0114
      8 C          11.4770   -1.2830   21.9470 C.ar    1  UNL1        0.0076
      9 C          12.8140   -0.9680   22.0910 C.ar    1  UNL1        0.0574
     10 CL         13.9900   -1.8410   21.1490 Cl      1  UNL1       -0.0823
     11 N           7.4280   -0.6410   20.7650 N.am    1  UNL1       -0.1773
     12 C           6.6610   -0.0720   19.7350 C.ar    1  UNL1        0.0926
     13 C           5.4730    0.6450   20.0790 C.ar    1  UNL1        0.0214
     14 C           4.9450    0.7250   21.3930 C.ar    1  UNL1        0.0221
     15 C           3.7870    1.4160   21.6060 C.ar    1  UNL1        0.0989
     16 N           3.0990    2.0510   20.6430 N.ar    1  UNL1       -0.2423
     17 C           3.5830    2.0090   19.4070 C.ar    1  UNL1        0.1004
     18 C           4.7730    1.3190   19.0440 C.ar    1  UNL1        0.0396
     19 C           5.3120    1.2450   17.7350 C.ar    1  UNL1        0.1005
     20 N           6.4190    0.5730   17.4160 N.ar    1  UNL1       -0.2409
     21 C           7.0540   -0.0750   18.3970 C.ar    1  UNL1        0.1154
@<TRIPOS>BOND
     1     2     1    2
     2     3     2    1
     3     4     3    1
     4     5     4   ar
     5     6     5   ar
     6     7     6   ar
     7     8     4   ar
     8     9     8   ar
     9     9     7   ar
    10    10     9    1
    11    11     2   am
    12    12    11    1
    13    13    12   ar
    14    14    13   ar
    15    15    14   ar
    16    16    15   ar
    17    17    16   ar
    18    18    17   ar
    19    18    13   ar
    20    19    18   ar
    21    20    19   ar
    22    21    20   ar
    23    21    12   ar
