@<TRIPOS>MOLECULE
*****
 26 29 0 0 0
SMALL
GASTEIGER

@<TRIPOS>ATOM
      1 O           9.3860    1.1940   21.1410 O.2     1  UNL1       -0.2726
      2 C           8.9170    0.1530   21.5830 C.2     1  UNL1        0.2501
      3 C           9.5740   -0.5680   22.7830 C.3     1  UNL1        0.1136
      4 C          11.0690   -0.2690   22.8120 C.ar    1  UNL1        0.0218
      5 C          11.9110   -0.9310   21.9250 C.ar    1  UNL1        0.0106
      6 C          13.2630   -0.6560   21.9330 C.ar    1  UNL1        0.0576
      7 CL         14.2990   -1.5250   20.8370 Cl      1  UNL1       -0.0823
      8 C          13.8160    0.2620   22.8040 C.ar    1  UNL1        0.0145
      9 C          13.0010    0.9010   23.7200 C.ar    1  UNL1        0.0374
     10 C          11.6410    0.6390   23.7190 C.ar    1  UNL1        0.1350
     11 O          10.9010    1.3870   24.6020 O.3     1  UNL1       -0.4757
     12 C           9.4560    1.3320   24.4590 C.3     1  UNL1        0.2063
     13 C           8.9360   -0.0400   24.0890 C.3     1  UNL1        0.0617
     14 C           9.3720   -2.1010   22.6960 C.3     1  UNL1        0.1222
     15 N           8.0160   -2.5620   22.9930 N.3     1  UNL1       -0.1305
     16 N           7.9170   -0.4520   20.9320 N.am    1  UNL1       -0.1773
     17 C           6.9720   -0.0500   19.9880 C.ar    1  UNL1        0.0925
     18 C           5.9020    0.8440   20.3100 C.ar    1  UNL1        0.0184
     19 C           5.4460    1.0870   21.6330 C.ar    1  UNL1        0.0014
     20 C           4.3490    1.8710   21.8680 C.ar    1  UNL1        0.0000
     21 C           3.6490    2.4420   20.8160 C.ar    1  UNL1        0.0001
     22 C           4.0550    2.2510   19.5240 C.ar    1  UNL1        0.0016
     23 C           5.1910    1.4550   19.2360 C.ar    1  UNL1        0.0204
     24 C           5.6300    1.1860   17.9180 C.ar    1  UNL1        0.0989
     25 N           6.6440    0.3880   17.6200 N.ar    1  UNL1       -0.2410
     26 C           7.2650   -0.2240   18.6370 C.ar    1  UNL1        0.1154
@<TRIPOS>BOND
     1     2     1    2
     2     3     2    1
     3     4     3    1
     4     5     4   ar
     5     6     5   ar
     6     7     6    1
     7     8     6   ar
     8     9     8   ar
     9    10     9   ar
    10    10     4   ar
    11    11    10    1
    12    12    11    1
    13    13    12    1
    14    13     3    1
    15     3    14    1
    16    15    14    1
    17    16     2   am
    18    17    16    1
    19    18    17   ar
    20    19    18   ar
    21    20    19   ar
    22    21    20   ar
    23    22    21   ar
    24    23    22   ar
    25    23    18   ar
    26    24    23   ar
    27    25    24   ar
    28    26    25   ar
    29    26    17   ar
