@<TRIPOS>MOLECULE
*****
 34 38 0 0 0
SMALL
GASTEIGER

@<TRIPOS>ATOM
      1 O          13.8030    7.8120   22.8170 O.2     1  UNL1       -0.2666
      2 C          13.0520    7.1770   23.5540 C.2     1  UNL1        0.2839
      3 C          12.1600    7.9850   24.4300 C.ar    1  UNL1        0.1987
      4 O          10.8250    7.6870   24.4710 O.2     1  UNL1       -0.4458
      5 C          10.2420    8.6440   25.2690 C.ar    1  UNL1        0.1798
      6 C          11.1560    9.5030   25.7120 C.ar    1  UNL1        0.0440
      7 C          12.4090    9.0860   25.1770 C.ar    1  UNL1        0.0455
      8 N          13.0350    5.8320   23.5790 N.am    1  UNL1       -0.2701
      9 C          13.7330    5.0810   22.5230 C.3     1  UNL1        0.1152
     10 C          12.9320    3.8640   22.1080 C.3     1  UNL1        0.1123
     11 C          12.4970    5.0390   24.6980 C.3     1  UNL1        0.1152
     12 C          11.7720    3.8000   24.1900 C.3     1  UNL1        0.1123
     13 N          12.6370    3.0440   23.2830 N.pl3   1  UNL1       -0.3040
     14 C          12.3290    1.7060   23.0320 C.ar    1  UNL1        0.0485
     15 C          13.3400    0.7920   22.7150 C.ar    1  UNL1        0.0259
     16 C          12.9960   -0.4880   22.3230 C.ar    1  UNL1        0.0586
     17 CL         14.2540   -1.5810   21.8220 Cl      1  UNL1       -0.0822
     18 C          10.9950    1.2820   22.9890 C.ar    1  UNL1        0.0108
     19 C          10.6690   -0.0110   22.5820 C.ar    1  UNL1       -0.0110
     20 C          11.6830   -0.9030   22.2530 C.ar    1  UNL1        0.0077
     21 C           9.2210   -0.4320   22.4640 C.3     1  UNL1        0.1135
     22 C           8.5080    0.2820   21.3310 C.2     1  UNL1        0.2500
     23 O           8.7670    1.4460   21.0340 O.2     1  UNL1       -0.2726
     24 N           7.6840   -0.4840   20.6030 N.am    1  UNL1       -0.1773
     25 C           6.6270   -0.1170   19.7550 C.ar    1  UNL1        0.0925
     26 C           5.6260    0.8230   20.1640 C.ar    1  UNL1        0.0184
     27 C           5.2270    1.0150   21.5140 C.ar    1  UNL1        0.0014
     28 C           4.1760    1.8310   21.8310 C.ar    1  UNL1        0.0000
     29 C           3.4720    2.4990   20.8380 C.ar    1  UNL1        0.0001
     30 C           3.8180    2.3550   19.5250 C.ar    1  UNL1        0.0016
     31 C           4.8970    1.5120   19.1500 C.ar    1  UNL1        0.0204
     32 C           5.2310    1.2480   17.8050 C.ar    1  UNL1        0.0989
     33 N           6.1510    0.3790   17.4260 N.ar    1  UNL1       -0.2410
     34 C           6.7930   -0.2970   18.3830 C.ar    1  UNL1        0.1154
@<TRIPOS>BOND
     1     2     1    2
     2     3     2    1
     3     4     3   ar
     4     5     4   ar
     5     6     5   ar
     6     7     6   ar
     7     7     3   ar
     8     8     2   am
     9     9     8    1
    10    10     9    1
    11    11     8    1
    12    12    11    1
    13    13    12    1
    14    13    10    1
    15    14    13    1
    16    15    14   ar
    17    16    15   ar
    18    17    16    1
    19    18    14   ar
    20    19    18   ar
    21    20    19   ar
    22    20    16   ar
    23    21    19    1
    24    22    21    1
    25    23    22    2
    26    24    22   am
    27    25    24    1
    28    26    25   ar
    29    27    26   ar
    30    28    27   ar
    31    29    28   ar
    32    30    29   ar
    33    31    30   ar
    34    31    26   ar
    35    32    31   ar
    36    33    32   ar
    37    34    33   ar
    38    34    25   ar
