@<TRIPOS>MOLECULE
*****
 27 30 0 0 0
SMALL
GASTEIGER

@<TRIPOS>ATOM
      1 O           9.2340    1.2570   21.2090 O.2     1  UNL1       -0.2701
      2 C           8.6980    0.2770   21.7090 C.2     1  UNL1        0.2742
      3 C           9.2870   -0.3910   23.0050 C.3     1  UNL1        0.1878
      4 C          10.7950   -0.2660   23.1050 C.ar    1  UNL1        0.0489
      5 C          11.6230   -0.9150   22.1910 C.ar    1  UNL1        0.0312
      6 C          12.9890   -0.8430   22.3570 C.ar    1  UNL1        0.1424
      7 F          13.7810   -1.4250   21.4170 F       1  UNL1       -0.2041
      8 C          13.6010   -0.1820   23.3900 C.ar    1  UNL1        0.0624
      9 C          12.7800    0.4360   24.2950 C.ar    1  UNL1        0.1758
     10 F          13.3290    1.0930   25.3440 F       1  UNL1       -0.2009
     11 C          11.3980    0.4140   24.1850 C.ar    1  UNL1        0.1645
     12 O          10.6800    1.0390   25.1700 O.3     1  UNL1       -0.4733
     13 C           9.3870    0.4630   25.4010 C.3     1  UNL1        0.2088
     14 C           8.5690    0.3980   24.1250 C.3     1  UNL1        0.0879
     15 O           9.0400   -1.8080   22.8750 O.3     1  UNL1       -0.3428
     16 C           7.9780   -2.3930   23.6510 C.3     1  UNL1        0.1750
     17 N           7.5670   -0.2860   21.2200 N.am    1  UNL1       -0.1754
     18 C           6.8220    0.1140   20.0860 C.ar    1  UNL1        0.0925
     19 C           5.5930    0.8170   20.2900 C.ar    1  UNL1        0.0184
     20 C           5.0170    1.0460   21.5670 C.ar    1  UNL1        0.0014
     21 C           3.8300    1.7090   21.6940 C.ar    1  UNL1        0.0000
     22 C           3.1600    2.1850   20.5740 C.ar    1  UNL1        0.0001
     23 C           3.6740    1.9950   19.3220 C.ar    1  UNL1        0.0016
     24 C           4.8970    1.2980   19.1440 C.ar    1  UNL1        0.0204
     25 C           5.4580    1.0320   17.8710 C.ar    1  UNL1        0.0989
     26 N           6.5850    0.3620   17.6800 N.ar    1  UNL1       -0.2410
     27 C           7.2350   -0.0800   18.7660 C.ar    1  UNL1        0.1154
@<TRIPOS>BOND
     1     2     1    2
     2     3     2    1
     3     4     3    1
     4     5     4   ar
     5     6     5   ar
     6     7     6    1
     7     8     6   ar
     8     9     8   ar
     9    10     9    1
    10    11     4   ar
    11    11     9   ar
    12    12    11    1
    13    13    12    1
    14    14    13    1
    15    14     3    1
    16     3    15    1
    17    16    15    1
    18    17     2   am
    19    18    17    1
    20    19    18   ar
    21    20    19   ar
    22    21    20   ar
    23    22    21   ar
    24    23    22   ar
    25    24    23   ar
    26    24    19   ar
    27    25    24   ar
    28    26    25   ar
    29    27    26   ar
    30    27    18   ar
