@<TRIPOS>MOLECULE
*****
 22 24 0 0 0
SMALL
GASTEIGER

@<TRIPOS>ATOM
      1 O           9.1690    1.0050   21.0850 O.2     1  UNL1       -0.2726
      2 C           8.7590   -0.1370   21.2890 C.2     1  UNL1        0.2501
      3 C           9.3670   -1.0350   22.3490 C.3     1  UNL1        0.1157
      4 C          10.7570   -0.6350   22.7890 C.ar    1  UNL1        0.0167
      5 C          10.9540    0.4050   23.6780 C.ar    1  UNL1        0.1367
      6 F           9.8640    0.9490   24.2760 F       1  UNL1       -0.2045
      7 C          12.1890    0.9480   23.9440 C.ar    1  UNL1        0.0316
      8 C          13.2930    0.4610   23.2630 C.ar    1  UNL1        0.0319
      9 C          11.8740   -1.1260   22.1160 C.ar    1  UNL1        0.0281
     10 C          13.1040   -0.5600   22.3680 C.ar    1  UNL1        0.1400
     11 F          14.1830   -1.0400   21.6900 F       1  UNL1       -0.2042
     12 N           7.7320   -0.6970   20.6160 N.am    1  UNL1       -0.1773
     13 C           6.8690   -0.0940   19.6800 C.ar    1  UNL1        0.0925
     14 C           5.7310    0.6150   20.1740 C.ar    1  UNL1        0.0184
     15 C           5.4230    0.7440   21.5550 C.ar    1  UNL1        0.0014
     16 C           4.3620    1.4960   21.9690 C.ar    1  UNL1        0.0000
     17 C           3.5490    2.1440   21.0440 C.ar    1  UNL1        0.0001
     18 C           3.7940    2.0360   19.7020 C.ar    1  UNL1        0.0016
     19 C           4.8920    1.2740   19.2320 C.ar    1  UNL1        0.0204
     20 C           5.2410    1.1830   17.8600 C.ar    1  UNL1        0.0989
     21 N           6.3010    0.5300   17.4040 N.ar    1  UNL1       -0.2410
     22 C           7.0790   -0.0920   18.3000 C.ar    1  UNL1        0.1154
@<TRIPOS>BOND
     1     2     1    2
     2     3     2    1
     3     4     3    1
     4     5     4   ar
     5     6     5    1
     6     7     5   ar
     7     8     7   ar
     8     9     4   ar
     9    10     9   ar
    10    10     8   ar
    11    11    10    1
    12    12     2   am
    13    13    12    1
    14    14    13   ar
    15    15    14   ar
    16    16    15   ar
    17    17    16   ar
    18    18    17   ar
    19    19    18   ar
    20    19    14   ar
    21    20    19   ar
    22    21    20   ar
    23    22    21   ar
    24    22    13   ar
