@<TRIPOS>MOLECULE
*****
 30 33 0 0 0
SMALL
GASTEIGER

@<TRIPOS>ATOM
      1 O          13.3600    6.6180   22.0520 O.2     1  UNL1       -0.2730
      2 C          13.3650    5.4230   22.3220 C.2     1  UNL1        0.2499
      3 C          12.6360    4.1890   21.8110 C.3     1  UNL1        0.1539
      4 N          14.0650    4.7090   23.2230 N.am    1  UNL1       -0.1652
      5 C          13.6620    3.4080   22.6400 C.3     1  UNL1        0.2718
      6 O          12.9090    2.5960   23.5580 O.3     1  UNL1       -0.4581
      7 C          12.6640    1.3070   23.1430 C.ar    1  UNL1        0.1445
      8 C          13.7010    0.4560   22.7910 C.ar    1  UNL1        0.0486
      9 C          13.3850   -0.8330   22.4070 C.ar    1  UNL1        0.0637
     10 CL         14.6630   -1.8990   21.9000 Cl      1  UNL1       -0.0820
     11 C          11.3420    0.8890   23.1030 C.ar    1  UNL1        0.0739
     12 C          11.0690   -0.4150   22.7220 C.ar    1  UNL1        0.1425
     13 C          12.0850   -1.2950   22.3830 C.ar    1  UNL1        0.0485
     14 O           9.7380   -0.7410   22.7120 O.3     1  UNL1       -0.4734
     15 C           9.3600   -2.0770   22.3520 C.3     1  UNL1        0.2287
     16 C           7.8650   -2.1150   22.3470 C.3     1  UNL1        0.1626
     17 N           7.3280   -1.1330   21.4120 N.am    1  UNL1       -0.1977
     18 C           6.1110   -1.2560   20.8870 C.2     1  UNL1        0.2651
     19 O           5.3830   -2.2240   21.1160 O.2     1  UNL1       -0.2684
     20 C           5.6690   -0.1520   20.0160 C.ar    1  UNL1        0.0613
     21 C           4.6560    0.7980   20.4540 C.ar    1  UNL1        0.0223
     22 C           4.1250    0.8110   21.7470 C.ar    1  UNL1        0.0016
     23 C           3.1790    1.7620   22.0980 C.ar    1  UNL1        0.0001
     24 C           2.7390    2.6920   21.1720 C.ar    1  UNL1        0.0015
     25 C           3.2460    2.6930   19.8810 C.ar    1  UNL1        0.0192
     26 C           4.2170    1.7560   19.5190 C.ar    1  UNL1        0.0847
     27 N           4.7850    1.7750   18.2490 N.ar    1  UNL1       -0.2079
     28 C           5.7820    0.9320   17.8320 C.ar    1  UNL1        0.2794
     29 O           6.3110    1.0940   16.7270 O.2     1  UNL1       -0.2652
     30 C           6.1950   -0.0540   18.7700 C.ar    1  UNL1        0.0671
@<TRIPOS>BOND
     1     2     1    2
     2     3     2    1
     3     4     2   am
     4     5     4    1
     5     5     3    1
     6     5     6    1
     7     7     6    1
     8     8     7   ar
     9     9     8   ar
    10    10     9    1
    11    11     7   ar
    12    12    11   ar
    13    13    12   ar
    14    13     9   ar
    15    14    12    1
    16    15    14    1
    17    16    15    1
    18    17    16    1
    19    18    17   am
    20    19    18    2
    21    20    18    1
    22    21    20   ar
    23    22    21   ar
    24    23    22   ar
    25    24    23   ar
    26    25    24   ar
    27    26    25   ar
    28    26    21   ar
    29    27    26   ar
    30    28    27   ar
    31    29    28    2
    32    30    28   ar
    33    30    20   ar
