@<TRIPOS>MOLECULE
*****
 30 34 0 0 0
SMALL
GASTEIGER

@<TRIPOS>ATOM
      1 O           8.5820    1.1600   21.2750 O.2     1  UNL1       -0.2726
      2 C           8.3270   -0.0400   21.2090 C.2     1  UNL1        0.2493
      3 N           7.6030   -0.5840   20.2130 N.am    1  UNL1       -0.1774
      4 C           6.5770   -0.0430   19.4090 C.ar    1  UNL1        0.0925
      5 C           5.6120    0.8840   19.9280 C.ar    1  UNL1        0.0184
      6 C           5.3280    1.0430   21.3110 C.ar    1  UNL1        0.0014
      7 C           4.3080    1.8480   21.7340 C.ar    1  UNL1        0.0000
      8 C           3.5250    2.5390   20.8200 C.ar    1  UNL1        0.0001
      9 C           3.7660    2.4330   19.4800 C.ar    1  UNL1        0.0016
     10 C           4.8090    1.6020   18.9970 C.ar    1  UNL1        0.0204
     11 C           5.0370    1.3780   17.6210 C.ar    1  UNL1        0.0989
     12 N           5.9250    0.5210   17.1420 N.ar    1  UNL1       -0.2410
     13 C           6.6510   -0.1710   18.0240 C.ar    1  UNL1        0.1154
     14 C           8.9530   -1.0600   22.1620 C.3     1  UNL1        0.1036
     15 C          10.3670   -0.6760   22.5490 C.ar    1  UNL1        0.0004
     16 C          10.5740    0.2490   23.5800 C.ar    1  UNL1        0.0446
     17 C          11.8600    0.6680   23.9110 C.ar    1  UNL1        0.0151
     18 C          12.9470    0.1540   23.2230 C.ar    1  UNL1        0.0126
     19 C          11.4700   -1.2060   21.8860 C.ar    1  UNL1        0.0088
     20 C          12.7380   -0.7820   22.2270 C.ar    1  UNL1        0.0575
     21 CL         14.1050   -1.4310   21.3620 Cl      1  UNL1       -0.0823
     22 C           8.1310   -1.1980   23.4590 C.3     1  UNL1        0.0350
     23 C           8.1230    0.1170   24.2440 C.3     1  UNL1        0.0920
     24 N           9.4510    0.7380   24.3370 N.pl3   1  UNL1       -0.3013
     25 C           9.5410    1.9310   25.1530 C.3     1  UNL1        0.1573
     26 C           9.6420    1.5950   26.6050 C.ar    1  UNL1        0.1592
     27 N          10.2390    0.4640   27.0760 N.ar    1  UNL1       -0.2258
     28 C          10.1620    0.5010   28.4390 C.ar    1  UNL1        0.1209
     29 C           9.5110    1.6700   28.7550 C.ar    1  UNL1        0.1209
     30 N           9.1830    2.3560   27.6060 N.ar    1  UNL1       -0.2258
@<TRIPOS>BOND
     1     2     1    2
     2     3     2   am
     3     4     3    1
     4     5     4   ar
     5     6     5   ar
     6     7     6   ar
     7     8     7   ar
     8     9     8   ar
     9    10     9   ar
    10    10     5   ar
    11    11    10   ar
    12    12    11   ar
    13    13    12   ar
    14    13     4   ar
    15    14     2    1
    16    15    14    1
    17    16    15   ar
    18    17    16   ar
    19    18    17   ar
    20    19    15   ar
    21    20    19   ar
    22    20    18   ar
    23    21    20    1
    24    22    14    1
    25    23    22    1
    26    24    23    1
    27    24    16    1
    28    25    24    1
    29    26    25    1
    30    27    26   ar
    31    28    27   ar
    32    29    28   ar
    33    30    26   ar
    34    30    29   ar
