
     RDKit          3D

 30 34  0  0  0  0  0  0  0  0999 V2000
    8.5820    1.1600   21.2750 O   0  0  0  0  0  0  0  0  0  0  0  0
    8.3270   -0.0400   21.2090 C   0  0  0  0  0  0  0  0  0  0  0  0
    7.6030   -0.5840   20.2130 N   0  0  0  0  0  0  0  0  0  0  0  0
    6.5770   -0.0430   19.4090 C   0  0  0  0  0  0  0  0  0  0  0  0
    5.6120    0.8840   19.9280 C   0  0  0  0  0  0  0  0  0  0  0  0
    5.3280    1.0430   21.3110 C   0  0  0  0  0  0  0  0  0  0  0  0
    4.3080    1.8480   21.7340 C   0  0  0  0  0  0  0  0  0  0  0  0
    3.5250    2.5390   20.8200 C   0  0  0  0  0  0  0  0  0  0  0  0
    3.7660    2.4330   19.4800 C   0  0  0  0  0  0  0  0  0  0  0  0
    4.8090    1.6020   18.9970 C   0  0  0  0  0  0  0  0  0  0  0  0
    5.0370    1.3780   17.6210 C   0  0  0  0  0  0  0  0  0  0  0  0
    5.9250    0.5210   17.1420 N   0  0  0  0  0  0  0  0  0  0  0  0
    6.6510   -0.1710   18.0240 C   0  0  0  0  0  0  0  0  0  0  0  0
    8.9530   -1.0600   22.1620 C   0  0  1  0  0  0  0  0  0  0  0  0
   10.3670   -0.6760   22.5490 C   0  0  0  0  0  0  0  0  0  0  0  0
   10.5740    0.2490   23.5800 C   0  0  0  0  0  0  0  0  0  0  0  0
   11.8600    0.6680   23.9110 C   0  0  0  0  0  0  0  0  0  0  0  0
   12.9470    0.1540   23.2230 C   0  0  0  0  0  0  0  0  0  0  0  0
   11.4700   -1.2060   21.8860 C   0  0  0  0  0  0  0  0  0  0  0  0
   12.7380   -0.7820   22.2270 C   0  0  0  0  0  0  0  0  0  0  0  0
   14.1050   -1.4310   21.3620 Cl  0  0  0  0  0  0  0  0  0  0  0  0
    8.1310   -1.1980   23.4590 C   0  0  0  0  0  0  0  0  0  0  0  0
    8.1230    0.1170   24.2440 C   0  0  0  0  0  0  0  0  0  0  0  0
    9.4510    0.7380   24.3370 N   0  0  0  0  0  0  0  0  0  0  0  0
    9.5410    1.9310   25.1530 C   0  0  0  0  0  0  0  0  0  0  0  0
    9.6420    1.5950   26.6050 C   0  0  0  0  0  0  0  0  0  0  0  0
   10.2390    0.4640   27.0760 N   0  0  0  0  0  0  0  0  0  0  0  0
   10.1620    0.5010   28.4390 C   0  0  0  0  0  0  0  0  0  0  0  0
    9.5110    1.6700   28.7550 C   0  0  0  0  0  0  0  0  0  0  0  0
    9.1830    2.3560   27.6060 N   0  0  0  0  0  0  0  0  0  0  0  0
  2  1  2  0
  3  2  1  0
  4  3  1  0
  5  4  1  0
  6  5  2  0
  7  6  1  0
  8  7  2  0
  9  8  1  0
 10  9  2  0
 10  5  1  0
 11 10  1  0
 12 11  2  0
 13 12  1  0
 13  4  2  0
 14  2  1  6
 15 14  1  0
 16 15  1  0
 17 16  2  0
 18 17  1  0
 19 15  2  0
 20 19  1  0
 20 18  2  0
 21 20  1  0
 22 14  1  0
 23 22  1  0
 24 23  1  0
 24 16  1  0
 25 24  1  0
 26 25  1  0
 27 26  2  0
 28 27  1  0
 29 28  2  0
 30 26  1  0
 30 29  1  0
M  END
> <BADATOMS>
29;26;28;27;25;24
> <BADCOMMENTS>
Weak Density;Weak Density;Weak Density;Weak Density;Weak Density;Weak Density
> <BADATOMNAMES>
[HET]1.N30;[HET]1.N27;[HET]1.C29;[HET]1.C28;[HET]1.C26;[HET]1.C25