@<TRIPOS>MOLECULE
*****
 20 22 0 0 0
SMALL
GASTEIGER

@<TRIPOS>ATOM
      1 O           8.9320    0.8300   21.1000 O.2     1  UNL1       -0.2726
      2 C           8.3740   -0.2200   21.4140 C.2     1  UNL1        0.2501
      3 C           8.8620   -1.0640   22.5790 C.3     1  UNL1        0.1135
      4 C          10.3240   -0.7940   22.8570 C.ar    1  UNL1       -0.0122
      5 C          10.7100    0.1370   23.8140 C.ar    1  UNL1       -0.0037
      6 C          12.0450    0.4810   23.9710 C.ar    1  UNL1        0.0006
      7 C          13.0150   -0.1030   23.1720 C.ar    1  UNL1        0.0114
      8 C          11.3040   -1.4040   22.0830 C.ar    1  UNL1        0.0076
      9 C          12.6280   -1.0490   22.2490 C.ar    1  UNL1        0.0574
     10 CL         13.8420   -1.8460   21.2810 Cl      1  UNL1       -0.0823
     11 N           7.3000   -0.7130   20.7650 N.am    1  UNL1       -0.1758
     12 C           6.6510   -0.0460   19.6990 C.ar    1  UNL1        0.1116
     13 C           5.5130    0.7240   19.9510 C.ar    1  UNL1        0.1190
     14 N           4.8700    1.0170   21.1270 N.ar    1  UNL1       -0.2210
     15 C           3.8690    1.8650   20.8070 C.ar    1  UNL1        0.1990
     16 N           3.8060    2.1560   19.5210 N.ar    1  UNL1       -0.2208
     17 C           4.8550    1.4370   18.9440 C.ar    1  UNL1        0.1211
     18 C           5.3980    1.3150   17.6730 C.ar    1  UNL1        0.1196
     19 N           6.4930    0.5990   17.3850 N.ar    1  UNL1       -0.2393
     20 C           7.0960   -0.0590   18.3830 C.ar    1  UNL1        0.1170
@<TRIPOS>BOND
     1     2     1    2
     2     3     2    1
     3     4     3    1
     4     5     4   ar
     5     6     5   ar
     6     7     6   ar
     7     8     4   ar
     8     9     8   ar
     9     9     7   ar
    10    10     9    1
    11    11     2   am
    12    12    11    1
    13    13    12   ar
    14    14    13   ar
    15    15    14   ar
    16    16    15   ar
    17    17    16   ar
    18    17    13   ar
    19    18    17   ar
    20    19    18   ar
    21    20    19   ar
    22    20    12   ar
