@<TRIPOS>MOLECULE
*****
 18 19 0 0 0
SMALL
GASTEIGER

@<TRIPOS>ATOM
      1 O           8.6730    0.8720   21.3890 O.2     1  UNL1       -0.2725
      2 C           8.3200   -0.2870   21.1830 C.2     1  UNL1        0.2525
      3 C           8.9520   -1.4570   21.9120 C.3     1  UNL1        0.1135
      4 C           9.9480   -0.9610   22.9350 C.ar    1  UNL1       -0.0136
      5 C          11.2650   -0.7200   22.5700 C.ar    1  UNL1       -0.0081
      6 C          12.1410   -0.0540   23.4130 C.ar    1  UNL1       -0.0225
      7 C          13.5330    0.2980   22.9570 C.3     1  UNL1        0.0310
      8 C          11.6820    0.3270   24.6680 C.ar    1  UNL1       -0.0085
      9 C           9.5290   -0.5830   24.2050 C.ar    1  UNL1       -0.0081
     10 C          10.3840    0.0650   25.0870 C.ar    1  UNL1       -0.0225
     11 C           9.9050    0.4980   26.4510 C.3     1  UNL1        0.0310
     12 N           7.4870   -0.6350   20.1570 N.am    1  UNL1       -0.1430
     13 C           6.6320    0.0130   19.2990 C.ar    1  UNL1        0.2446
     14 N           5.8500    1.1300   19.5910 N.ar    1  UNL1       -0.2776
     15 C           5.5370    1.6940   20.9020 C.3     1  UNL1        0.1349
     16 C           5.3480    1.5600   18.4270 C.ar    1  UNL1        0.2037
     17 N           5.7480    0.7980   17.4520 N.ar    1  UNL1       -0.1242
     18 N           6.5550   -0.1920   17.9950 N.ar    1  UNL1       -0.1107
@<TRIPOS>BOND
     1     2     1    2
     2     3     2    1
     3     4     3    1
     4     5     4   ar
     5     6     5   ar
     6     7     6    1
     7     8     6   ar
     8     9     4   ar
     9    10     9   ar
    10    10     8   ar
    11    11    10    1
    12    12     2   am
    13    13    12    1
    14    14    13   ar
    15    15    14    1
    16    16    14   ar
    17    17    16   ar
    18    18    17   ar
    19    18    13   ar
