@<TRIPOS>MOLECULE
*****
 33 37 0 0 0
SMALL
GASTEIGER

@<TRIPOS>ATOM
      1 CL         13.8800   -1.8430   21.1850 Cl      1  UNL1       -0.0823
      2 C          12.7830   -1.0610   22.2900 C.ar    1  UNL1        0.0574
      3 C          11.4230   -1.2430   22.1270 C.ar    1  UNL1        0.0074
      4 C          13.2880   -0.2650   23.2900 C.ar    1  UNL1        0.0111
      5 C          12.4080    0.3570   24.1570 C.ar    1  UNL1       -0.0023
      6 C          11.0290    0.1900   24.0350 C.ar    1  UNL1       -0.0078
      7 C          10.1460    0.8090   25.0980 C.3     1  UNL1        0.1229
      8 N           8.7200    0.7960   24.7470 N.3     1  UNL1       -0.1401
      9 S           7.6180    1.8490   25.2520 S.O2    1  UNL1        0.1025
     10 O           8.0260    2.3300   26.5210 O.2     1  UNL1       -0.1408
     11 O           6.3300    1.2770   25.0620 O.2     1  UNL1       -0.1408
     12 N           7.7730    3.0680   24.2310 N.3     1  UNL1       -0.1403
     13 C           8.1980    4.4830   24.4040 C.3     1  UNL1        0.1279
     14 C           7.5020    3.2840   22.7840 C.3     1  UNL1        0.1279
     15 C           7.3800    4.7740   23.1340 C.3     1  UNL1        0.1507
     16 O           5.9960    4.9920   23.4040 O.3     1  UNL1       -0.3506
     17 C           5.2400    5.3060   22.2490 C.3     1  UNL1        0.1741
     18 C          10.5300   -0.6070   22.9920 C.ar    1  UNL1       -0.0142
     19 C           9.0370   -0.7750   22.7800 C.3     1  UNL1        0.1182
     20 C           8.2530   -0.4090   24.0390 C.3     1  UNL1        0.1108
     21 C           8.5780   -0.0070   21.5390 C.2     1  UNL1        0.2507
     22 O           9.1700    0.9900   21.1330 O.2     1  UNL1       -0.2726
     23 N           7.4460   -0.4870   20.9730 N.am    1  UNL1       -0.1773
     24 C           6.6950    0.0600   19.9090 C.ar    1  UNL1        0.0925
     25 C           5.4850    0.7670   20.2100 C.ar    1  UNL1        0.0184
     26 C           5.0060    0.9780   21.5290 C.ar    1  UNL1        0.0014
     27 C           3.8860    1.7270   21.7570 C.ar    1  UNL1        0.0000
     28 C           3.1790    2.2890   20.6970 C.ar    1  UNL1        0.0001
     29 C           3.5920    2.1020   19.4100 C.ar    1  UNL1        0.0016
     30 C           4.7550    1.3400   19.1300 C.ar    1  UNL1        0.0204
     31 C           5.2680    1.1680   17.8230 C.ar    1  UNL1        0.0989
     32 N           6.3920    0.5250   17.5440 N.ar    1  UNL1       -0.2410
     33 C           7.0730   -0.0090   18.5690 C.ar    1  UNL1        0.1154
@<TRIPOS>BOND
     1     2     1    1
     2     3     2   ar
     3     4     2   ar
     4     5     4   ar
     5     6     5   ar
     6     7     6    1
     7     8     7    1
     8     9     8    1
     9    10     9    2
    10    11     9    2
    11    12     9    1
    12    13    12    1
    13    14    12    1
    14    15    14    1
    15    15    13    1
    16    15    16    1
    17    17    16    1
    18    18     6   ar
    19    18     3   ar
    20    19    18    1
    21    20    19    1
    22    20     8    1
    23    19    21    1
    24    22    21    2
    25    23    21   am
    26    24    23    1
    27    25    24   ar
    28    26    25   ar
    29    27    26   ar
    30    28    27   ar
    31    29    28   ar
    32    30    29   ar
    33    30    25   ar
    34    31    30   ar
    35    32    31   ar
    36    33    32   ar
    37    33    24   ar
