
     RDKit          3D

 33 37  0  0  0  0  0  0  0  0999 V2000
   13.8800   -1.8430   21.1850 Cl  0  0  0  0  0  0  0  0  0  0  0  0
   12.7830   -1.0610   22.2900 C   0  0  0  0  0  0  0  0  0  0  0  0
   11.4230   -1.2430   22.1270 C   0  0  0  0  0  0  0  0  0  0  0  0
   13.2880   -0.2650   23.2900 C   0  0  0  0  0  0  0  0  0  0  0  0
   12.4080    0.3570   24.1570 C   0  0  0  0  0  0  0  0  0  0  0  0
   11.0290    0.1900   24.0350 C   0  0  0  0  0  0  0  0  0  0  0  0
   10.1460    0.8090   25.0980 C   0  0  0  0  0  0  0  0  0  0  0  0
    8.7200    0.7960   24.7470 N   0  0  0  0  0  0  0  0  0  0  0  0
    7.6180    1.8490   25.2520 S   0  0  2  0  0  0  0  0  0  0  0  0
    8.0260    2.3300   26.5210 O   0  0  0  0  0  0  0  0  0  0  0  0
    6.3300    1.2770   25.0620 O   0  0  0  0  0  0  0  0  0  0  0  0
    7.7730    3.0680   24.2310 N   0  0  0  0  0  0  0  0  0  0  0  0
    8.1980    4.4830   24.4040 C   0  0  0  0  0  0  0  0  0  0  0  0
    7.5020    3.2840   22.7840 C   0  0  0  0  0  0  0  0  0  0  0  0
    7.3800    4.7740   23.1340 C   0  0  1  0  0  0  0  0  0  0  0  0
    5.9960    4.9920   23.4040 O   0  0  0  0  0  0  0  0  0  0  0  0
    5.2400    5.3060   22.2490 C   0  0  0  0  0  0  0  0  0  0  0  0
   10.5300   -0.6070   22.9920 C   0  0  0  0  0  0  0  0  0  0  0  0
    9.0370   -0.7750   22.7800 C   0  0  1  0  0  0  0  0  0  0  0  0
    8.2530   -0.4090   24.0390 C   0  0  0  0  0  0  0  0  0  0  0  0
    8.5780   -0.0070   21.5390 C   0  0  0  0  0  0  0  0  0  0  0  0
    9.1700    0.9900   21.1330 O   0  0  0  0  0  0  0  0  0  0  0  0
    7.4460   -0.4870   20.9730 N   0  0  0  0  0  0  0  0  0  0  0  0
    6.6950    0.0600   19.9090 C   0  0  0  0  0  0  0  0  0  0  0  0
    5.4850    0.7670   20.2100 C   0  0  0  0  0  0  0  0  0  0  0  0
    5.0060    0.9780   21.5290 C   0  0  0  0  0  0  0  0  0  0  0  0
    3.8860    1.7270   21.7570 C   0  0  0  0  0  0  0  0  0  0  0  0
    3.1790    2.2890   20.6970 C   0  0  0  0  0  0  0  0  0  0  0  0
    3.5920    2.1020   19.4100 C   0  0  0  0  0  0  0  0  0  0  0  0
    4.7550    1.3400   19.1300 C   0  0  0  0  0  0  0  0  0  0  0  0
    5.2680    1.1680   17.8230 C   0  0  0  0  0  0  0  0  0  0  0  0
    6.3920    0.5250   17.5440 N   0  0  0  0  0  0  0  0  0  0  0  0
    7.0730   -0.0090   18.5690 C   0  0  0  0  0  0  0  0  0  0  0  0
  2  1  1  0
  3  2  2  0
  4  2  1  0
  5  4  2  0
  6  5  1  0
  7  6  1  0
  8  7  1  0
  9  8  1  6
 10  9  2  0
 11  9  2  0
 12  9  1  0
 13 12  1  0
 14 12  1  0
 15 14  1  0
 15 13  1  0
 15 16  1  1
 17 16  1  0
 18  6  2  0
 18  3  1  0
 19 18  1  0
 20 19  1  0
 20  8  1  0
 19 21  1  6
 22 21  2  0
 23 21  1  0
 24 23  1  0
 25 24  1  0
 26 25  2  0
 27 26  1  0
 28 27  2  0
 29 28  1  0
 30 29  2  0
 30 25  1  0
 31 30  1  0
 32 31  2  0
 33 32  1  0
 33 24  2  0
M  END
