@<TRIPOS>MOLECULE
*****
 26 30 0 0 0
SMALL
GASTEIGER

@<TRIPOS>ATOM
      1 O           9.2290    1.4200   21.1760 O.2     1  UNL1       -0.2741
      2 C           8.7650    0.4040   21.6600 C.2     1  UNL1        0.2360
      3 C           9.3000   -0.3310   22.8900 C.3     1  UNL1        0.1327
      4 C          10.8000   -0.3650   22.9410 C.ar    1  UNL1        0.0238
      5 C          11.7210   -1.0770   22.1810 C.ar    1  UNL1        0.0107
      6 C          13.0600   -0.7590   22.3080 C.ar    1  UNL1        0.0576
      7 CL         14.2230   -1.5800   21.2970 Cl      1  UNL1       -0.0823
      8 C          13.5010    0.2160   23.1910 C.ar    1  UNL1        0.0145
      9 C          12.5800    0.8960   23.9730 C.ar    1  UNL1        0.0374
     10 C          11.2350    0.5940   23.8400 C.ar    1  UNL1        0.1351
     11 O          10.2100    1.1420   24.5840 O.3     1  UNL1       -0.4749
     12 C           8.9870    0.4530   24.1860 C.3     1  UNL1        0.2180
     13 C           8.6930   -1.7430   22.7300 C.3     1  UNL1        0.0384
     14 C           7.4180   -1.5240   21.9240 C.3     1  UNL1        0.0992
     15 N           7.6790   -0.2760   21.1910 N.am    1  UNL1       -0.2568
     16 C           6.8590    0.1350   20.0910 C.ar    1  UNL1        0.0731
     17 C           7.1960   -0.1610   18.7740 C.ar    1  UNL1        0.1137
     18 N           6.5350    0.2780   17.6940 N.ar    1  UNL1       -0.2410
     19 C           5.4700    1.0400   17.8980 C.ar    1  UNL1        0.0989
     20 C           5.7160    0.9570   20.3150 C.ar    1  UNL1        0.0190
     21 C           5.2900    1.3690   21.6020 C.ar    1  UNL1        0.0310
     22 C           4.2160    2.1910   21.7050 C.ar    1  UNL1        0.1402
     23 F           3.8580    2.6250   22.9390 F       1  UNL1       -0.2042
     24 C           4.9990    1.4210   19.1780 C.ar    1  UNL1        0.0205
     25 C           3.8780    2.2640   19.3710 C.ar    1  UNL1        0.0039
     26 C           3.4950    2.6410   20.6230 C.ar    1  UNL1        0.0297
@<TRIPOS>BOND
     1     2     1    2
     2     3     2    1
     3     4     3    1
     4     5     4   ar
     5     6     5   ar
     6     7     6    1
     7     8     6   ar
     8     9     8   ar
     9    10     4   ar
    10    10     9   ar
    11    11    10    1
    12    12    11    1
    13     3    12    1
    14    13     3    1
    15    14    13    1
    16    15     2   am
    17    15    14    1
    18    16    15    1
    19    17    16   ar
    20    18    17   ar
    21    19    18   ar
    22    20    16   ar
    23    21    20   ar
    24    22    21   ar
    25    23    22    1
    26    24    20   ar
    27    24    19   ar
    28    25    24   ar
    29    26    25   ar
    30    26    22   ar
