
     RDKit          3D

 25 28  0  0  0  0  0  0  0  0999 V2000
   14.0320   -1.3290   21.3350 Cl  0  0  0  0  0  0  0  0  0  0  0  0
   12.7640   -0.6950   22.3490 C   0  0  0  0  0  0  0  0  0  0  0  0
   11.4700   -1.1180   22.1380 C   0  0  0  0  0  0  0  0  0  0  0  0
   13.0730    0.2260   23.3270 C   0  0  0  0  0  0  0  0  0  0  0  0
   12.0600    0.7280   24.1260 C   0  0  0  0  0  0  0  0  0  0  0  0
   10.7400    0.3220   23.9240 C   0  0  0  0  0  0  0  0  0  0  0  0
    9.7000    0.7650   24.7460 N   0  0  0  0  0  0  0  0  0  0  0  0
    9.9770    1.5980   25.9050 C   0  0  0  0  0  0  0  0  0  0  0  0
   10.4380   -0.6040   22.9150 C   0  0  0  0  0  0  0  0  0  0  0  0
    9.0100   -1.0360   22.6450 C   0  0  1  0  0  0  0  0  0  0  0  0
    8.1370   -0.9010   23.9070 C   0  0  0  0  0  0  0  0  0  0  0  0
    8.2860    0.4870   24.5190 C   0  0  0  0  0  0  0  0  0  0  0  0
    8.4680   -0.1810   21.4990 C   0  0  0  0  0  0  0  0  0  0  0  0
    8.9850    0.8860   21.1750 O   0  0  0  0  0  0  0  0  0  0  0  0
    7.3790   -0.6960   20.8900 N   0  0  0  0  0  0  0  0  0  0  0  0
    6.6280   -0.1190   19.8480 C   0  0  0  0  0  0  0  0  0  0  0  0
    5.5030    0.6920   20.1930 C   0  0  0  0  0  0  0  0  0  0  0  0
    5.0540    0.8950   21.5250 C   0  0  0  0  0  0  0  0  0  0  0  0
    3.9750    1.6910   21.7900 C   0  0  0  0  0  0  0  0  0  0  0  0
    3.2900    2.3210   20.7570 C   0  0  0  0  0  0  0  0  0  0  0  0
    3.6820    2.1560   19.4570 C   0  0  0  0  0  0  0  0  0  0  0  0
    4.8010    1.3430   19.1400 C   0  0  0  0  0  0  0  0  0  0  0  0
    5.2760    1.1570   17.8180 C   0  0  0  0  0  0  0  0  0  0  0  0
    6.3250    0.4070   17.5030 N   0  0  0  0  0  0  0  0  0  0  0  0
    6.9640   -0.2190   18.5000 C   0  0  0  0  0  0  0  0  0  0  0  0
  2  1  1  0
  3  2  2  0
  4  2  1  0
  5  4  2  0
  6  5  1  0
  7  6  1  0
  8  7  1  0
  9  6  2  0
  9  3  1  0
 10  9  1  0
 11 10  1  0
 12 11  1  0
 12  7  1  0
 10 13  1  6
 14 13  2  0
 15 13  1  0
 16 15  1  0
 17 16  1  0
 18 17  2  0
 19 18  1  0
 20 19  2  0
 21 20  1  0
 22 21  2  0
 22 17  1  0
 23 22  1  0
 24 23  2  0
 25 24  1  0
 25 16  2  0
M  END
