@<TRIPOS>MOLECULE
*****
 25 28 0 0 0
SMALL
GASTEIGER

@<TRIPOS>ATOM
      1 CL         14.0320   -1.3290   21.3350 Cl      1  UNL1       -0.0823
      2 C          12.7640   -0.6950   22.3490 C.ar    1  UNL1        0.0575
      3 C          11.4700   -1.1180   22.1380 C.ar    1  UNL1        0.0088
      4 C          13.0730    0.2260   23.3270 C.ar    1  UNL1        0.0126
      5 C          12.0600    0.7280   24.1260 C.ar    1  UNL1        0.0151
      6 C          10.7400    0.3220   23.9240 C.ar    1  UNL1        0.0443
      7 N           9.7000    0.7650   24.7460 N.pl3   1  UNL1       -0.3060
      8 C           9.9770    1.5980   25.9050 C.3     1  UNL1        0.1122
      9 C          10.4380   -0.6040   22.9150 C.ar    1  UNL1        0.0004
     10 C           9.0100   -1.0360   22.6450 C.3     1  UNL1        0.1036
     11 C           8.1370   -0.9010   23.9070 C.3     1  UNL1        0.0350
     12 C           8.2860    0.4870   24.5190 C.3     1  UNL1        0.0917
     13 C           8.4680   -0.1810   21.4990 C.2     1  UNL1        0.2493
     14 O           8.9850    0.8860   21.1750 O.2     1  UNL1       -0.2726
     15 N           7.3790   -0.6960   20.8900 N.am    1  UNL1       -0.1774
     16 C           6.6280   -0.1190   19.8480 C.ar    1  UNL1        0.0925
     17 C           5.5030    0.6920   20.1930 C.ar    1  UNL1        0.0184
     18 C           5.0540    0.8950   21.5250 C.ar    1  UNL1        0.0014
     19 C           3.9750    1.6910   21.7900 C.ar    1  UNL1        0.0000
     20 C           3.2900    2.3210   20.7570 C.ar    1  UNL1        0.0001
     21 C           3.6820    2.1560   19.4570 C.ar    1  UNL1        0.0016
     22 C           4.8010    1.3430   19.1400 C.ar    1  UNL1        0.0204
     23 C           5.2760    1.1570   17.8180 C.ar    1  UNL1        0.0989
     24 N           6.3250    0.4070   17.5030 N.ar    1  UNL1       -0.2410
     25 C           6.9640   -0.2190   18.5000 C.ar    1  UNL1        0.1154
@<TRIPOS>BOND
     1     2     1    1
     2     3     2   ar
     3     4     2   ar
     4     5     4   ar
     5     6     5   ar
     6     7     6    1
     7     8     7    1
     8     9     6   ar
     9     9     3   ar
    10    10     9    1
    11    11    10    1
    12    12    11    1
    13    12     7    1
    14    10    13    1
    15    14    13    2
    16    15    13   am
    17    16    15    1
    18    17    16   ar
    19    18    17   ar
    20    19    18   ar
    21    20    19   ar
    22    21    20   ar
    23    22    21   ar
    24    22    17   ar
    25    23    22   ar
    26    24    23   ar
    27    25    24   ar
    28    25    16   ar
