@<TRIPOS>MOLECULE
*****
 14 14 0 0 0
SMALL
GASTEIGER

@<TRIPOS>ATOM
      1 C          13.7430   -2.4780   24.3190 C.3     1  UNL1        0.2560
      2 C          13.3830   -0.2440   23.5370 C.2     1  UNL1        0.3413
      3 C          12.6290    1.0810   23.6240 C.ar    1  UNL1        0.0757
      4 C          11.4120    1.1530   24.2860 C.ar    1  UNL1        0.0078
      5 C          10.7410    2.3660   24.3680 C.ar    1  UNL1        0.0202
      6 C          11.2950    3.4990   23.7830 C.ar    1  UNL1        0.1251
      7 C          12.5130    3.4240   23.1210 C.ar    1  UNL1        0.0202
      8 C          13.1780    2.2150   23.0460 C.ar    1  UNL1        0.0078
      9 N           9.0160    5.0730   22.9390 N.3     1  UNL1        0.0392
     10 O          13.2610   -1.1810   24.5730 O.3     1  UNL1       -0.4413
     11 O          14.0780   -0.4590   22.6070 O.2     1  UNL1       -0.2449
     12 O          11.3170    6.1920   23.4770 O.2     1  UNL1       -0.1503
     13 O          10.1520    5.4220   25.2810 O.2     1  UNL1       -0.1503
     14 S          10.4380    5.0900   23.8840 S.O2    1  UNL1        0.0935
@<TRIPOS>BOND
     1     3     2    1
     2     4     3   ar
     3     5     4   ar
     4     6     5   ar
     5     7     6   ar
     6     8     7   ar
     7     8     3   ar
     8    10     2    1
     9    10     1    1
    10    11     2    2
    11    14    13    2
    12    14     9    1
    13    14     6    1
    14    14    12    2
