@<TRIPOS>MOLECULE
*****
 32 35 0 0 0
SMALL
GASTEIGER

@<TRIPOS>ATOM
      1 CL         13.9280   -1.2350   21.4320 Cl      1  UNL1       -0.0814
      2 C          12.6680   -0.5610   22.4180 C.ar    1  UNL1        0.0679
      3 C          12.9500    0.3760   23.4120 C.ar    1  UNL1        0.0682
      4 CL         14.5510    1.0140   23.6270 Cl      1  UNL1       -0.0814
      5 C          11.9300    0.8630   24.2030 C.ar    1  UNL1        0.0120
      6 C          10.6310    0.4470   23.9830 C.ar    1  UNL1       -0.0013
      7 C          11.3670   -0.9780   22.1970 C.ar    1  UNL1        0.0100
      8 C          10.3300   -0.4690   22.9770 C.ar    1  UNL1        0.0047
      9 C           8.8840   -0.9120   22.7090 C.3     1  UNL1        0.1673
     10 C           8.8520   -2.4130   22.4000 C.3     1  UNL1        0.0357
     11 N           8.0490   -0.6610   23.8940 N.am    1  UNL1       -0.1957
     12 C           7.4510    0.4840   24.2600 C.2     1  UNL1        0.2429
     13 O           7.5710    1.5450   23.6550 O.2     1  UNL1       -0.2733
     14 C           6.6280    0.3730   25.5150 C.3     1  UNL1        0.0955
     15 C           7.0670    1.3870   26.5960 C.3     1  UNL1        0.0279
     16 C           5.7900    2.0180   27.1370 C.3     1  UNL1        0.0727
     17 C           5.1700    0.7680   25.2740 C.3     1  UNL1        0.0813
     18 N           4.6910    1.2040   26.5880 N.3     1  UNL1       -0.2711
     19 C           3.4150    1.9340   26.5260 C.3     1  UNL1        0.0896
     20 C           8.3470   -0.1220   21.4710 C.2     1  UNL1        0.2673
     21 O           8.9690    0.8200   20.9920 O.2     1  UNL1       -0.2708
     22 N           7.1490   -0.5300   21.0000 N.am    1  UNL1       -0.1760
     23 C           6.4820    0.0030   19.8780 C.ar    1  UNL1        0.0925
     24 C           5.3960    0.9110   20.0840 C.ar    1  UNL1        0.0184
     25 C           4.8680    1.2350   21.3610 C.ar    1  UNL1        0.0014
     26 C           3.8140    2.0980   21.4890 C.ar    1  UNL1        0.0000
     27 C           3.2370    2.6820   20.3690 C.ar    1  UNL1        0.0001
     28 C           3.7080    2.4030   19.1180 C.ar    1  UNL1        0.0016
     29 C           4.8000    1.5140   18.9400 C.ar    1  UNL1        0.0204
     30 C           5.3230    1.1740   17.6670 C.ar    1  UNL1        0.0989
     31 N           6.3250    0.3300   17.4750 N.ar    1  UNL1       -0.2410
     32 C           6.8740   -0.2340   18.5600 C.ar    1  UNL1        0.1154
@<TRIPOS>BOND
     1     2     1    1
     2     3     2   ar
     3     4     3    1
     4     5     3   ar
     5     6     5   ar
     6     7     2   ar
     7     8     6   ar
     8     8     7   ar
     9     9     8    1
    10     9    10    1
    11    11     9    1
    12    12    11   am
    13    13    12    2
    14    14    12    1
    15    15    14    1
    16    16    15    1
    17    17    14    1
    18    18    17    1
    19    18    16    1
    20    19    18    1
    21    20     9    1
    22    21    20    2
    23    22    20   am
    24    23    22    1
    25    24    23   ar
    26    25    24   ar
    27    26    25   ar
    28    27    26   ar
    29    28    27   ar
    30    29    28   ar
    31    29    24   ar
    32    30    29   ar
    33    31    30   ar
    34    32    31   ar
    35    32    23   ar
