@<TRIPOS>MOLECULE
*****
 19 20 0 0 0
SMALL
GASTEIGER

@<TRIPOS>ATOM
      1 O           5.7870   -4.9460   19.6090 O.2     1  UNL1       -0.2749
      2 C           6.4590   -4.0820   20.1480 C.2     1  UNL1        0.2261
      3 C           7.0220   -2.9270   19.3460 C.3     1  UNL1        0.0948
      4 N           6.7410   -4.1150   21.4610 N.am    1  UNL1       -0.2795
      5 C           6.2950   -5.2400   22.2950 C.3     1  UNL1        0.0939
      6 C           5.3200   -4.7550   23.3600 C.3     1  UNL1        0.0306
      7 C           7.4000   -3.0410   22.2180 C.3     1  UNL1        0.0939
      8 C           6.4760   -2.5120   23.3190 C.3     1  UNL1        0.0306
      9 C           6.0040   -3.6730   24.2080 C.3     1  UNL1        0.0804
     10 C           5.0830   -3.1790   25.3030 C.2     1  UNL1        0.2290
     11 O           3.8890   -3.0360   25.0940 O.2     1  UNL1       -0.2745
     12 N           5.6200   -2.9490   26.5340 N.am    1  UNL1       -0.2569
     13 C           4.8390   -2.2380   27.5420 C.3     1  UNL1        0.1200
     14 C           6.9360   -3.3580   26.9230 C.ar    1  UNL1        0.0539
     15 C           7.9940   -2.4550   26.8440 C.ar    1  UNL1        0.0149
     16 C           9.2910   -2.9050   27.0340 C.ar    1  UNL1        0.0013
     17 C           9.5380   -4.2380   27.3120 C.ar    1  UNL1        0.0001
     18 C           8.4850   -5.1230   27.4380 C.ar    1  UNL1        0.0013
     19 C           7.1820   -4.6910   27.2530 C.ar    1  UNL1        0.0149
@<TRIPOS>BOND
     1     2     1    2
     2     3     2    1
     3     4     2   am
     4     5     4    1
     5     6     5    1
     6     7     4    1
     7     8     7    1
     8     9     6    1
     9     9     8    1
    10     9    10    1
    11    11    10    2
    12    12    10   am
    13    13    12    1
    14    14    12    1
    15    15    14   ar
    16    16    15   ar
    17    17    16   ar
    18    18    17   ar
    19    19    14   ar
    20    19    18   ar
