@<TRIPOS>MOLECULE
*****
 18 19 0 0 0
SMALL
GASTEIGER

@<TRIPOS>ATOM
      1 CL         13.9140   -1.8050   21.3570 Cl      1  UNL1       -0.0823
      2 C          12.6810   -1.0300   22.3190 C.ar    1  UNL1        0.0574
      3 C          13.0540   -0.1190   23.2830 C.ar    1  UNL1        0.0114
      4 C          12.0750    0.3970   24.1210 C.ar    1  UNL1        0.0006
      5 C          10.7480    0.0350   23.9540 C.ar    1  UNL1       -0.0037
      6 C          11.3600   -1.3930   22.1320 C.ar    1  UNL1        0.0076
      7 C          10.3710   -0.8400   22.9430 C.ar    1  UNL1       -0.0122
      8 C           8.9110   -1.0900   22.6390 C.3     1  UNL1        0.1135
      9 C           8.4470   -0.2050   21.4970 C.2     1  UNL1        0.2500
     10 O           9.1390    0.7170   21.0730 O.2     1  UNL1       -0.2726
     11 N           7.2300   -0.5170   20.9970 N.am    1  UNL1       -0.1776
     12 C           6.5640    0.1230   19.9210 C.ar    1  UNL1        0.0918
     13 C           5.4080    0.8900   20.1630 C.ar    1  UNL1        0.0160
     14 C           4.8800    1.1180   21.5570 C.3     1  UNL1        0.0341
     15 C           6.9750    0.0300   18.5940 C.ar    1  UNL1        0.1384
     16 N           6.3380    0.6020   17.5850 N.ar    1  UNL1       -0.1450
     17 N           5.2110    1.3340   17.8260 N.ar    1  UNL1       -0.1466
     18 C           4.7680    1.4680   19.0710 C.ar    1  UNL1        0.1192
@<TRIPOS>BOND
     1     2     1    1
     2     3     2   ar
     3     4     3   ar
     4     5     4   ar
     5     6     2   ar
     6     7     5   ar
     7     7     6   ar
     8     8     7    1
     9     9     8    1
    10    10     9    2
    11    11     9   am
    12    12    11    1
    13    13    12   ar
    14    14    13    1
    15    15    12   ar
    16    16    15   ar
    17    17    16   ar
    18    18    17   ar
    19    18    13   ar
