@<TRIPOS>MOLECULE
*****
 24 27 0 0 0
SMALL
GASTEIGER

@<TRIPOS>ATOM
      1 O           9.2730    1.3790   21.2620 O.2     1  UNL1       -0.2726
      2 C           8.8530    0.2810   21.6140 C.2     1  UNL1        0.2494
      3 C           9.3520   -0.4140   22.8820 C.3     1  UNL1        0.1074
      4 C           8.5520    0.2090   24.0610 C.3     1  UNL1        0.0610
      5 C           9.4490    0.6120   25.2040 C.3     1  UNL1        0.2062
      6 O          10.6020    1.3480   24.7670 O.3     1  UNL1       -0.4757
      7 C          10.8580   -0.2420   22.9630 C.ar    1  UNL1        0.0212
      8 C          11.3950    0.6250   23.9140 C.ar    1  UNL1        0.1350
      9 C          12.7580    0.8610   23.9980 C.ar    1  UNL1        0.0374
     10 C          13.6110    0.2520   23.0970 C.ar    1  UNL1        0.0145
     11 C          11.7360   -0.8790   22.0880 C.ar    1  UNL1        0.0106
     12 C          13.0910   -0.6120   22.1610 C.ar    1  UNL1        0.0576
     13 CL         14.1640   -1.3840   21.0350 Cl      1  UNL1       -0.0823
     14 N           7.9320   -0.4040   20.9140 N.am    1  UNL1       -0.1777
     15 C           6.8470   -0.0010   20.1070 C.ar    1  UNL1        0.0896
     16 C           5.8540    0.9580   20.4080 C.ar    1  UNL1        0.0097
     17 C           5.6780    1.4490   21.8250 C.3     1  UNL1        0.1161
     18 N           4.3800    2.0940   22.0520 N.3     1  UNL1       -0.2129
     19 C           4.0480    3.0540   20.9840 C.3     1  UNL1        0.0938
     20 C           3.8860    2.3670   19.6470 C.3     1  UNL1        0.0465
     21 C           5.0510    1.4470   19.3670 C.ar    1  UNL1       -0.0029
     22 C           5.3320    1.0260   18.0810 C.ar    1  UNL1        0.0944
     23 N           6.2980    0.1580   17.7670 N.ar    1  UNL1       -0.2413
     24 C           7.0030   -0.3670   18.7700 C.ar    1  UNL1        0.1151
@<TRIPOS>BOND
     1     2     1    2
     2     3     2    1
     3     4     3    1
     4     5     4    1
     5     6     5    1
     6     7     3    1
     7     8     7   ar
     8     8     6    1
     9     9     8   ar
    10    10     9   ar
    11    11     7   ar
    12    12    11   ar
    13    12    10   ar
    14    13    12    1
    15    14     2   am
    16    15    14    1
    17    16    15   ar
    18    17    16    1
    19    18    17    1
    20    19    18    1
    21    20    19    1
    22    21    20    1
    23    21    16   ar
    24    22    21   ar
    25    23    22   ar
    26    24    23   ar
    27    24    15   ar
