@<TRIPOS>MOLECULE
*****
 18 19 0 0 0
SMALL
GASTEIGER

@<TRIPOS>ATOM
      1 S           8.7210   -1.4390   23.4000 S.O2    1  UNL1        0.0929
      2 C          12.8410    0.4190   23.1220 C.ar    1  UNL1        0.0115
      3 N           9.9550   -5.3830   25.2360 N.ar    1  UNL1       -0.2409
      4 C           8.3820   -3.6110   26.7460 C.ar    1  UNL1       -0.0020
      5 C          11.2730   -1.2950   22.4660 C.ar    1  UNL1        0.0316
      6 O           7.7810   -0.3710   23.2440 O.2     1  UNL1       -0.1483
      7 C           7.5610   -2.6680   27.5870 C.3     1  UNL1        0.0325
      8 C          11.8970    0.9400   23.9960 C.ar    1  UNL1        0.0022
      9 C           8.7250   -4.8720   27.2240 C.ar    1  UNL1        0.0178
     10 C          10.3400   -0.7460   23.3320 C.ar    1  UNL1        0.1279
     11 N           8.5080   -1.9790   24.9240 N.pl3   1  UNL1       -0.0953
     12 O           8.6700   -2.5550   22.5070 O.2     1  UNL1       -0.1483
     13 C           8.8470   -3.2510   25.4700 C.ar    1  UNL1        0.1061
     14 C          10.6450    0.3590   24.1110 C.ar    1  UNL1        0.0203
     15 C           9.6320   -4.1720   24.7680 C.ar    1  UNL1        0.1165
     16 C          12.5180   -0.7010   22.3830 C.ar    1  UNL1        0.0590
     17 C           9.4980   -5.7110   26.4470 C.ar    1  UNL1        0.0987
     18 CL         13.7250   -1.4110   21.3500 Cl      1  UNL1       -0.0822
@<TRIPOS>BOND
     1     6     1    2
     2     7     4    1
     3     8     2   ar
     4     9     4   ar
     5    10     1    1
     6    10     5   ar
     7     1    11    1
     8    12     1    2
     9    13    11    1
    10    13     4   ar
    11    14    10   ar
    12    14     8   ar
    13    15    13   ar
    14    15     3   ar
    15    16     5   ar
    16    16     2   ar
    17    17     9   ar
    18    17     3   ar
    19    18    16    1
