@<TRIPOS>MOLECULE
*****
 20 21 0 0 0
SMALL
GASTEIGER

@<TRIPOS>ATOM
      1 O           9.3290    0.5120   20.9790 O.2     1  UNL1       -0.2715
      2 C           8.5910   -0.3350   21.4770 C.2     1  UNL1        0.2620
      3 N           7.3570   -0.6430   21.0110 N.am    1  UNL1       -0.1768
      4 C           6.6720   -0.0270   19.9320 C.ar    1  UNL1        0.0886
      5 C           5.5050    0.7250   20.1780 C.ar    1  UNL1       -0.0034
      6 C           4.9170    0.8660   21.5570 C.3     1  UNL1        0.0325
      7 C           4.9050    1.3460   19.0900 C.ar    1  UNL1        0.0177
      8 C           5.4640    1.2110   17.8360 C.ar    1  UNL1        0.0987
      9 N           6.5650    0.4960   17.5880 N.ar    1  UNL1       -0.2410
     10 C           7.1480   -0.1120   18.6240 C.ar    1  UNL1        0.1151
     11 C           9.0080   -1.1110   22.7160 C.3     1  UNL1        0.1606
     12 N          10.4080   -0.8960   23.0760 N.3     1  UNL1       -0.2620
     13 C          11.2110   -2.0690   22.7070 C.3     1  UNL1        0.0943
     14 C          12.6810   -1.8540   23.0470 C.3     1  UNL1        0.1107
     15 C          10.5520   -0.6190   24.5180 C.3     1  UNL1        0.0943
     16 C          12.0200   -0.3960   24.8830 C.3     1  UNL1        0.1107
     17 N          12.8210   -1.5590   24.4740 N.am    1  UNL1       -0.2767
     18 C          13.5400   -2.3480   25.3060 C.2     1  UNL1        0.2262
     19 O          14.6330   -2.0020   25.7060 O.2     1  UNL1       -0.2749
     20 C          12.9550   -3.6610   25.7120 C.3     1  UNL1        0.0948
@<TRIPOS>BOND
     1     2     1    2
     2     3     2   am
     3     4     3    1
     4     5     4   ar
     5     6     5    1
     6     7     5   ar
     7     8     7   ar
     8     9     8   ar
     9    10     9   ar
    10    10     4   ar
    11    11     2    1
    12    12    11    1
    13    13    12    1
    14    14    13    1
    15    15    12    1
    16    16    15    1
    17    17    16    1
    18    17    14    1
    19    18    17   am
    20    19    18    2
    21    20    18    1
