@<TRIPOS>MOLECULE
*****
 20 22 0 0 0
SMALL
GASTEIGER

@<TRIPOS>ATOM
      1 O           9.2940    0.9510   21.2390 O.2     1  UNL1       -0.2726
      2 C           8.7760   -0.1140   21.5800 C.2     1  UNL1        0.2500
      3 N           7.6360   -0.6070   21.0340 N.am    1  UNL1       -0.1773
      4 C           6.9000   -0.0850   19.9480 C.ar    1  UNL1        0.0925
      5 C           5.7480    0.7200   20.2190 C.ar    1  UNL1        0.0184
      6 C           5.2460    0.9680   21.5240 C.ar    1  UNL1        0.0014
      7 C           4.1390    1.7460   21.7150 C.ar    1  UNL1        0.0000
      8 C           3.4840    2.3240   20.6360 C.ar    1  UNL1        0.0001
      9 C           3.9240    2.1120   19.3600 C.ar    1  UNL1        0.0016
     10 C           5.0590    1.2970   19.1140 C.ar    1  UNL1        0.0204
     11 C           5.5440    1.0110   17.8120 C.ar    1  UNL1        0.0989
     12 N           6.6010    0.2520   17.5610 N.ar    1  UNL1       -0.2410
     13 C           7.2540   -0.2700   18.6110 C.ar    1  UNL1        0.1154
     14 C           9.3890   -0.9880   22.6570 C.3     1  UNL1        0.1135
     15 C          10.8310   -0.6340   22.9370 C.ar    1  UNL1       -0.0130
     16 C          11.1550    0.3170   23.8990 C.ar    1  UNL1       -0.0038
     17 C          12.4630    0.7610   24.0460 C.ar    1  UNL1       -0.0003
     18 C          13.4630    0.2490   23.2420 C.ar    1  UNL1       -0.0000
     19 C          13.1610   -0.7250   22.3080 C.ar    1  UNL1       -0.0003
     20 C          11.8550   -1.1720   22.1670 C.ar    1  UNL1       -0.0038
@<TRIPOS>BOND
     1     2     1    2
     2     3     2   am
     3     4     3    1
     4     5     4   ar
     5     6     5   ar
     6     7     6   ar
     7     8     7   ar
     8     9     8   ar
     9    10     9   ar
    10    10     5   ar
    11    11    10   ar
    12    12    11   ar
    13    13    12   ar
    14    13     4   ar
    15    14     2    1
    16    15    14    1
    17    16    15   ar
    18    17    16   ar
    19    18    17   ar
    20    19    18   ar
    21    20    15   ar
    22    20    19   ar
