@<TRIPOS>MOLECULE
*****
 23 25 0 0 0
SMALL
GASTEIGER

@<TRIPOS>ATOM
      1 O           8.7210    1.4490   21.2770 O.2     1  UNL1       -0.2726
      2 C           8.3930    0.2670   21.3360 C.2     1  UNL1        0.2500
      3 C           8.8970   -0.6460   22.4360 C.3     1  UNL1        0.1135
      4 C          10.3750   -0.4580   22.6920 C.ar    1  UNL1       -0.0122
      5 C          10.8280    0.5080   23.5820 C.ar    1  UNL1       -0.0037
      6 C          12.1820    0.7730   23.7160 C.ar    1  UNL1        0.0006
      7 C          13.1080    0.0630   22.9690 C.ar    1  UNL1        0.0114
      8 C          11.3080   -1.1930   21.9680 C.ar    1  UNL1        0.0076
      9 C          12.6550   -0.9270   22.1210 C.ar    1  UNL1        0.0574
     10 CL         13.8100   -1.8990   21.2510 Cl      1  UNL1       -0.0823
     11 N           7.6470   -0.3440   20.3950 N.am    1  UNL1       -0.1773
     12 C           6.6350    0.0710   19.4980 C.ar    1  UNL1        0.0925
     13 C           5.6510    1.0210   19.8310 C.ar    1  UNL1        0.0184
     14 C           4.9940    1.6800   18.7930 C.ar    1  UNL1        0.0220
     15 C           5.3550    1.3860   17.4940 C.ar    1  UNL1        0.0990
     16 N           6.2810    0.4830   17.1630 N.ar    1  UNL1       -0.2410
     17 C           6.8820   -0.1770   18.1550 C.ar    1  UNL1        0.1154
     18 C           5.2190    1.3300   21.2220 C.ar    1  UNL1        0.0013
     19 C           4.9520    2.6480   21.6000 C.ar    1  UNL1        0.0000
     20 C           4.3740    2.9290   22.8290 C.ar    1  UNL1        0.0000
     21 C           4.0680    1.9040   23.7030 C.ar    1  UNL1        0.0000
     22 C           4.3440    0.5960   23.3520 C.ar    1  UNL1        0.0000
     23 C           4.9210    0.3090   22.1250 C.ar    1  UNL1        0.0000
@<TRIPOS>BOND
     1     2     1    2
     2     3     2    1
     3     4     3    1
     4     5     4   ar
     5     6     5   ar
     6     7     6   ar
     7     8     4   ar
     8     9     8   ar
     9     9     7   ar
    10    10     9    1
    11    11     2   am
    12    12    11    1
    13    13    12   ar
    14    14    13   ar
    15    15    14   ar
    16    16    15   ar
    17    17    16   ar
    18    17    12   ar
    19    18    13    1
    20    19    18   ar
    21    20    19   ar
    22    21    20   ar
    23    22    21   ar
    24    23    18   ar
    25    23    22   ar
