@<TRIPOS>MOLECULE
*****
 34 38 0 0 0
SMALL
GASTEIGER

@<TRIPOS>ATOM
      1 O          12.8460    7.1210   22.1940 O.2     1  UNL1       -0.2666
      2 C          11.9340    6.5220   22.7430 C.2     1  UNL1        0.2839
      3 C          10.7950    7.2580   23.3680 C.ar    1  UNL1        0.1987
      4 O           9.5780    7.1810   22.7430 O.2     1  UNL1       -0.4458
      5 C           8.7100    7.9420   23.5030 C.ar    1  UNL1        0.1798
      6 C           9.3410    8.4660   24.5490 C.ar    1  UNL1        0.0440
      7 C          10.6970    8.0280   24.4730 C.ar    1  UNL1        0.0455
      8 N          11.9270    5.1850   22.8500 N.am    1  UNL1       -0.2701
      9 C          10.9040    4.4380   23.5980 C.3     1  UNL1        0.1152
     10 C          11.5540    3.5080   24.6200 C.3     1  UNL1        0.1123
     11 C          12.9430    4.3340   22.2170 C.3     1  UNL1        0.1152
     12 C          13.5750    3.4220   23.2560 C.3     1  UNL1        0.1123
     13 N          12.5480    2.6520   23.9680 N.pl3   1  UNL1       -0.3040
     14 C          12.2360    1.3840   23.4920 C.ar    1  UNL1        0.0485
     15 C          13.2540    0.5200   23.0930 C.ar    1  UNL1        0.0259
     16 C          12.9220   -0.6830   22.5190 C.ar    1  UNL1        0.0586
     17 CL         14.1970   -1.7210   21.9510 Cl      1  UNL1       -0.0822
     18 C          10.9000    0.9920   23.3350 C.ar    1  UNL1        0.0108
     19 C          10.5860   -0.2310   22.7580 C.ar    1  UNL1       -0.0110
     20 C          11.6120   -1.0750   22.3510 C.ar    1  UNL1        0.0077
     21 C           9.1420   -0.6250   22.5440 C.3     1  UNL1        0.1135
     22 C           8.5060    0.1410   21.4000 C.2     1  UNL1        0.2500
     23 O           8.7990    1.3050   21.1510 O.2     1  UNL1       -0.2726
     24 N           7.7050   -0.5900   20.6140 N.am    1  UNL1       -0.1773
     25 C           6.6600   -0.2040   19.7620 C.ar    1  UNL1        0.0925
     26 C           5.6560    0.7280   20.1760 C.ar    1  UNL1        0.0184
     27 C           5.2370    0.8880   21.5240 C.ar    1  UNL1        0.0014
     28 C           4.1770    1.6880   21.8410 C.ar    1  UNL1        0.0000
     29 C           3.4890    2.3750   20.8540 C.ar    1  UNL1        0.0001
     30 C           3.8510    2.2580   19.5430 C.ar    1  UNL1        0.0016
     31 C           4.9370    1.4310   19.1670 C.ar    1  UNL1        0.0204
     32 C           5.2880    1.1900   17.8190 C.ar    1  UNL1        0.0989
     33 N           6.2090    0.3250   17.4370 N.ar    1  UNL1       -0.2410
     34 C           6.8390   -0.3690   18.3920 C.ar    1  UNL1        0.1154
@<TRIPOS>BOND
     1     2     1    2
     2     3     2    1
     3     4     3   ar
     4     5     4   ar
     5     6     5   ar
     6     7     6   ar
     7     7     3   ar
     8     8     2   am
     9     9     8    1
    10    10     9    1
    11    11     8    1
    12    12    11    1
    13    13    12    1
    14    13    10    1
    15    14    13    1
    16    15    14   ar
    17    16    15   ar
    18    17    16    1
    19    18    14   ar
    20    19    18   ar
    21    20    19   ar
    22    20    16   ar
    23    21    19    1
    24    22    21    1
    25    23    22    2
    26    24    22   am
    27    25    24    1
    28    26    25   ar
    29    27    26   ar
    30    28    27   ar
    31    29    28   ar
    32    30    29   ar
    33    31    30   ar
    34    31    26   ar
    35    32    31   ar
    36    33    32   ar
    37    34    33   ar
    38    34    25   ar
