@<TRIPOS>MOLECULE
*****
 23 25 0 0 0
SMALL
GASTEIGER

@<TRIPOS>ATOM
      1 N           9.5280   -0.5630   21.8790 N.am    1  UNL1       -0.1787
      2 N          12.2480    4.3910   21.8040 N.am    1  UNL1       -0.1652
      3 N           4.8550    1.5630   19.0070 N.ar    1  UNL1       -0.2227
      4 C          11.8280   -1.2180   22.1970 C.ar    1  UNL1        0.0464
      5 C          12.0950    3.7570   23.1110 C.3     1  UNL1        0.2718
      6 O          12.9610    2.6180   23.3050 O.3     1  UNL1       -0.4582
      7 C           5.4250    0.8390   19.9780 C.ar    1  UNL1        0.0984
      8 C          10.8520   -0.2270   22.2490 C.ar    1  UNL1        0.0786
      9 C           7.0270    0.0080   18.4850 C.ar    1  UNL1        0.0984
     10 C           6.5230    0.0180   19.7740 C.ar    1  UNL1        0.0254
     11 C           7.3160   -0.5390   20.9340 C.3     1  UNL1        0.1165
     12 C          12.5170    1.3680   22.9270 C.ar    1  UNL1        0.1442
     13 C          12.8210    5.5060   22.2940 C.2     1  UNL1        0.2499
     14 C          11.1940    1.0690   22.6250 C.ar    1  UNL1        0.0537
     15 F          14.0680   -1.8450   22.4700 F       1  UNL1       -0.2040
     16 C          12.8110    4.9680   23.7190 C.3     1  UNL1        0.1539
     17 C          13.5050    0.3970   22.8700 C.ar    1  UNL1        0.0667
     18 C          13.1210   -0.8710   22.5030 C.ar    1  UNL1        0.1445
     19 N           6.4910    0.7110   17.4820 N.ar    1  UNL1       -0.2227
     20 O           8.7880    1.3620   20.8950 O.2     1  UNL1       -0.2726
     21 O          13.2000    6.5410   21.7470 O.2     1  UNL1       -0.2730
     22 C           5.4200    1.4450   17.8030 C.ar    1  UNL1        0.1989
     23 C           8.6100    0.1930   21.2310 C.2     1  UNL1        0.2501
@<TRIPOS>BOND
     1     5     2    1
     2     5     6    1
     3     7     3   ar
     4     8     1    1
     5     8     4   ar
     6    10     7   ar
     7    10     9   ar
     8    11    10    1
     9    12     6    1
    10    13     2   am
    11    14     8   ar
    12    14    12   ar
    13    16     5    1
    14    16    13    1
    15    17    12   ar
    16    18    17   ar
    17    18    15    1
    18    18     4   ar
    19    19     9   ar
    20    21    13    2
    21    22     3   ar
    22    22    19   ar
    23    23    20    2
    24    23    11    1
    25    23     1   am
