@<TRIPOS>MOLECULE
*****
 33 37 0 0 0
SMALL
GASTEIGER

@<TRIPOS>ATOM
      1 C           7.2430   -3.9670   23.4770 C.3     1  UNL1        0.0028
      2 C           7.0950   -0.2440   18.9060 C.3     1  UNL1        0.1046
      3 C           5.1390    0.9800   18.2160 C.3     1  UNL1        0.0888
      4 N           7.4490   -0.9060   21.2270 N.3     1  UNL1       -0.2483
      5 C           6.6200   -0.2320   20.2250 C.3     1  UNL1        0.0771
      6 C          11.9450   -1.4590   23.0260 C.3     1  UNL1        0.0165
      7 C          13.2350   -1.0380   23.3600 C.3     1  UNL1        0.0823
      8 C          13.5270    0.3150   23.4910 C.3     1  UNL1        0.0458
      9 C          12.5310    1.2680   23.2650 C.3     1  UNL1        0.1165
     10 C          11.9270    3.5980   23.1110 C.3     1  UNL1        0.1420
     11 C          12.5640    4.9500   23.5250 C.3     1  UNL1        0.0297
     12 C          11.2290    0.8680   22.9270 C.3     1  UNL1        0.0298
     13 C           6.9360   -2.0550   21.8290 C.3     1  UNL1        0.0743
     14 C           6.0700   -6.0980   23.5700 C.3     1  UNL1        0.0015
     15 C           6.3200   -6.1700   24.9460 C.3     1  UNL1        0.0000
     16 C          10.9400   -0.5080   22.8130 C.3     1  UNL1        0.0075
     17 C           9.5260   -1.0320   22.4490 C.3     1  UNL1        0.0464
     18 C           7.0240   -5.1460   25.5910 C.3     1  UNL1        0.0000
     19 C           7.4810   -4.0490   24.8570 C.3     1  UNL1        0.0001
     20 C           9.0390   -2.1860   23.0730 C.3     1  UNL1        0.0054
     21 C           8.7120   -0.3910   21.5190 C.3     1  UNL1        0.2125
     22 C           6.5220   -4.9950   22.8340 C.3     1  UNL1        0.0191
     23 C           6.2150   -4.9730   21.3330 C.3     1  UNL1        0.1093
     24 C          14.0850    5.0440   23.2820 C.3     1  UNL1        0.0026
     25 C          13.0910    5.8310   22.3990 C.3     1  UNL1        0.0026
     26 C           4.6770    0.9900   19.5380 C.3     1  UNL1        0.0202
     27 C           5.4110    0.3750   20.5570 C.3     1  UNL1        0.0190
     28 C           7.7700   -2.6980   22.7520 C.3     1  UNL1        0.0162
     29 N           6.3520    0.3660   17.8940 N.3     1  UNL1       -0.2166
     30 N           5.9820   -4.9690   20.2130 N.3     1  UNL1       -0.1314
     31 O           9.1340    0.7730   20.8780 O.3     1  UNL1       -0.2050
     32 O          12.9010    2.6200   23.4050 O.3     1  UNL1       -0.3562
     33 CL         14.5420   -2.2060   23.6590 Cl      1  UNL1       -0.1149
@<TRIPOS>BOND
     1     5     4    1
     2     5     2    1
     3     7     6    1
     4     8     7    1
     5     9     8    1
     6    11    10    1
     7    12     9    1
     8    13     4    1
     9    15    14    1
    10    16    12    1
    11    16     6    1
    12    17    16    1
    13    18    15    1
    14    19    18    1
    15    19     1    1
    16    20    17    1
    17    21     4    1
    18    21    17    1
    19    22    14    1
    20    22     1    1
    21    23    22    1
    22    24    11    1
    23    25    24    1
    24    25    11    1
    25    26     3    1
    26    27    26    1
    27    27     5    1
    28    28    20    1
    29    28    13    1
    30    28     1    1
    31    29     3    1
    32    29     2    1
    33    30    23    1
    34    31    21    1
    35    32    10    1
    36    32     9    1
    37    33     7    1
