@<TRIPOS>MOLECULE
*****
 19 20 0 0 0
SMALL
GASTEIGER

@<TRIPOS>ATOM
      1 CL         13.8470   -1.8410   21.2210 Cl      1  UNL1       -0.0823
      2 C          12.6310   -1.0990   22.2200 C.ar    1  UNL1        0.0574
      3 C          13.0040   -0.1450   23.1470 C.ar    1  UNL1        0.0114
      4 C          12.0340    0.3740   23.9950 C.ar    1  UNL1        0.0006
      5 C          10.7120   -0.0220   23.8700 C.ar    1  UNL1       -0.0038
      6 C          11.3180   -1.5030   22.0840 C.ar    1  UNL1        0.0076
      7 C          10.3380   -0.9390   22.8930 C.ar    1  UNL1       -0.0130
      8 C           8.8710   -1.2470   22.6160 C.3     1  UNL1        0.1008
      9 C           7.9970   -1.1750   23.8710 C.3     1  UNL1        0.0144
     10 C           8.4150   -0.3170   21.4870 C.2     1  UNL1        0.2492
     11 O           9.0580    0.6840   21.1770 O.2     1  UNL1       -0.2726
     12 N           7.2580   -0.6730   20.8820 N.am    1  UNL1       -0.1777
     13 C           6.6270    0.0620   19.8650 C.ar    1  UNL1        0.0885
     14 C           5.4760    0.8150   20.1520 C.ar    1  UNL1       -0.0034
     15 C           4.9710    1.0010   21.5590 C.3     1  UNL1        0.0325
     16 C           4.8600    1.4620   19.0880 C.ar    1  UNL1        0.0177
     17 C           5.4100    1.3680   17.8230 C.ar    1  UNL1        0.0987
     18 N           6.5250    0.6820   17.5480 N.ar    1  UNL1       -0.2410
     19 C           7.1140    0.0360   18.5590 C.ar    1  UNL1        0.1151
@<TRIPOS>BOND
     1     2     1    1
     2     3     2   ar
     3     4     3   ar
     4     5     4   ar
     5     6     2   ar
     6     7     5   ar
     7     7     6   ar
     8     8     7    1
     9     8     9    1
    10    10     8    1
    11    11    10    2
    12    12    10   am
    13    13    12    1
    14    14    13   ar
    15    15    14    1
    16    16    14   ar
    17    17    16   ar
    18    18    17   ar
    19    19    18   ar
    20    19    13   ar
