@<TRIPOS>MOLECULE
*****
 13 13 0 0 0
SMALL
GASTEIGER

@<TRIPOS>ATOM
      1 N           6.9060    2.7020   -6.5300 N.3     1  UNL1        0.0349
      2 C           4.4670   -2.0050   -8.3630 C.3     1  UNL1        0.0308
      3 O           4.6700    2.3140   -5.7380 O.2     1  UNL1       -0.1545
      4 C           5.9140   -1.7490   -8.1530 C.ar    1  UNL1       -0.0219
      5 C           6.7830   -2.8190   -8.3790 C.ar    1  UNL1        0.0251
      6 C           8.1570   -2.6290   -8.2250 C.ar    1  UNL1        0.1398
      7 C           8.6900   -1.3910   -7.8300 C.ar    1  UNL1        0.0293
      8 C           7.8190   -0.3320   -7.6050 C.ar    1  UNL1       -0.0005
      9 C           6.4300   -0.4820   -7.7660 C.ar    1  UNL1       -0.0008
     10 C           5.5720    0.7510   -7.5710 C.3     1  UNL1        0.1981
     11 F           8.9830   -3.6370   -8.4900 F       1  UNL1       -0.2042
     12 O           6.4710    0.7280   -5.1500 O.2     1  UNL1       -0.1545
     13 S           5.8340    1.5850   -6.0800 S.O2    1  UNL1        0.0782
@<TRIPOS>BOND
     1     4     2    1
     2     5     4   ar
     3     6     5   ar
     4     7     6   ar
     5     8     7   ar
     6     9     8   ar
     7     9     4   ar
     8    10     9    1
     9    11     6    1
    10    13     3    2
    11    13    10    1
    12    13     1    1
    13    13    12    2
