@<TRIPOS>MOLECULE
*****
 21 23 0 0 0
SMALL
GASTEIGER

@<TRIPOS>ATOM
      1 O           9.1740    0.8930   21.0900 O.2     1  UNL1       -0.2726
      2 C           8.7070   -0.1870   21.4480 C.2     1  UNL1        0.2516
      3 C           9.2990   -0.9690   22.6050 C.3     1  UNL1        0.1328
      4 C          10.7010   -0.5150   22.9350 C.ar    1  UNL1        0.0692
      5 C          10.9570    0.4100   23.9390 C.ar    1  UNL1        0.0153
      6 C          12.2670    0.8130   24.1520 C.ar    1  UNL1        0.0037
      7 C          13.2880    0.2900   23.3720 C.ar    1  UNL1        0.0308
      8 N          11.6740   -1.0450   22.1760 N.ar    1  UNL1       -0.2378
      9 C          12.9160   -0.6420   22.4190 C.ar    1  UNL1        0.1379
     10 CL         14.1460   -1.4070   21.4590 Cl      1  UNL1       -0.0613
     11 N           7.6300   -0.7640   20.8790 N.am    1  UNL1       -0.1773
     12 C           6.8000   -0.2370   19.8710 C.ar    1  UNL1        0.0925
     13 C           5.6450    0.5050   20.2680 C.ar    1  UNL1        0.0184
     14 C           5.2280    0.6550   21.6170 C.ar    1  UNL1        0.0014
     15 C           4.1410    1.4180   21.9340 C.ar    1  UNL1        0.0000
     16 C           3.4170    2.0640   20.9430 C.ar    1  UNL1        0.0001
     17 C           3.7670    1.9380   19.6290 C.ar    1  UNL1        0.0016
     18 C           4.8890    1.1590   19.2550 C.ar    1  UNL1        0.0204
     19 C           5.3260    1.0200   17.9140 C.ar    1  UNL1        0.0989
     20 N           6.3930    0.3220   17.5470 N.ar    1  UNL1       -0.2410
     21 C           7.0940   -0.2920   18.5090 C.ar    1  UNL1        0.1154
@<TRIPOS>BOND
     1     2     1    2
     2     3     2    1
     3     4     3    1
     4     5     4   ar
     5     6     5   ar
     6     7     6   ar
     7     8     4   ar
     8     9     8   ar
     9     9     7   ar
    10    10     9    1
    11    11     2   am
    12    12    11    1
    13    13    12   ar
    14    14    13   ar
    15    15    14   ar
    16    16    15   ar
    17    17    16   ar
    18    18    17   ar
    19    18    13   ar
    20    19    18   ar
    21    20    19   ar
    22    21    20   ar
    23    21    12   ar
