@<TRIPOS>MOLECULE
*****
 33 35 0 0 0
SMALL
GASTEIGER

@<TRIPOS>ATOM
      1 O           9.1730    1.3670   21.0920 O.2     1  UNL1       -0.2708
      2 C           8.1480    1.2290   21.7560 C.2     1  UNL1        0.2684
      3 C           7.1560    0.0960   21.4510 C.3     1  UNL1        0.1832
      4 C           6.5130    0.2660   20.0870 C.ar    1  UNL1        0.0241
      5 C           5.3070    0.9390   19.9490 C.ar    1  UNL1        0.0010
      6 C           4.8490    1.2900   18.6920 C.ar    1  UNL1        0.0204
      7 C           5.6130    0.9380   17.5970 C.ar    1  UNL1        0.0989
      8 N           6.7640    0.2620   17.6890 N.ar    1  UNL1       -0.2426
      9 C           7.1830   -0.0650   18.9180 C.ar    1  UNL1        0.0967
     10 N           7.6410   -1.2550   21.8050 N.am    1  UNL1       -0.2314
     11 C           8.8500   -1.3320   22.5220 C.ar    1  UNL1        0.1609
     12 N           8.8620   -1.2200   23.8550 N.ar    1  UNL1       -0.1328
     13 N          10.1320   -1.2360   24.3540 N.ar    1  UNL1       -0.1511
     14 C          10.9130   -1.3760   23.2850 C.ar    1  UNL1        0.0827
     15 C          12.4210   -1.4530   23.4510 C.3     1  UNL1        0.0373
     16 C          13.0800   -1.7120   22.0930 C.3     1  UNL1        0.0060
     17 C          12.7850   -2.5810   24.4190 C.3     1  UNL1        0.0060
     18 C          12.9520   -0.1430   24.0330 C.3     1  UNL1        0.0060
     19 C          10.1510   -1.4430   22.1030 C.ar    1  UNL1        0.0530
     20 C           6.8930   -2.4000   21.5290 C.2     1  UNL1        0.2310
     21 O           5.7230   -2.2740   21.2170 O.2     1  UNL1       -0.2745
     22 C           7.5600   -3.7440   21.5730 C.3     1  UNL1        0.0857
     23 C           7.3390   -4.4730   20.2880 C.3     1  UNL1        0.0101
     24 N           7.7530    2.0640   22.7410 N.am    1  UNL1       -0.1782
     25 C           8.3620    3.3290   22.9760 C.ar    1  UNL1        0.0654
     26 C           7.7250    4.4820   22.5010 C.ar    1  UNL1       -0.0068
     27 C           6.3590    4.4240   21.8640 C.3     1  UNL1        0.0324
     28 C           8.3670    5.7040   22.6840 C.ar    1  UNL1       -0.0030
     29 C           9.5770    5.7860   23.3490 C.ar    1  UNL1       -0.0006
     30 C          10.1840    4.6380   23.8300 C.ar    1  UNL1       -0.0030
     31 C           9.5960    3.3890   23.6450 C.ar    1  UNL1       -0.0072
     32 C          10.3050    2.1480   24.1440 C.3     1  UNL1        0.0277
     33 C           9.6400    1.4270   25.3140 C.3     1  UNL1        0.0051
@<TRIPOS>BOND
     1     2     1    2
     2     3     2    1
     3     4     3    1
     4     5     4   ar
     5     6     5   ar
     6     7     6   ar
     7     8     7   ar
     8     9     8   ar
     9     9     4   ar
    10    10     3    1
    11    11    10    1
    12    12    11   ar
    13    13    12   ar
    14    14    13   ar
    15    15    14    1
    16    15    16    1
    17    17    15    1
    18    18    15    1
    19    19    11   ar
    20    19    14   ar
    21    20    10   am
    22    21    20    2
    23    22    20    1
    24    23    22    1
    25    24     2   am
    26    25    24    1
    27    26    25   ar
    28    27    26    1
    29    28    26   ar
    30    29    28   ar
    31    30    29   ar
    32    31    30   ar
    33    31    25   ar
    34    32    31    1
    35    33    32    1
