@<TRIPOS>MOLECULE
*****
 29 32 0 0 0
SMALL
GASTEIGER

@<TRIPOS>ATOM
      1 C          12.8080   -1.0410   23.1490 C.3     1  UNL1        0.0811
      2 C          11.5620   -1.5470   22.8190 C.3     1  UNL1        0.0165
      3 C           9.1210   -1.2210   22.2990 C.3     1  UNL1        0.0464
      4 C          10.6870    0.6870   22.8410 C.3     1  UNL1        0.0165
      5 C           8.5730   -2.3570   22.9010 C.3     1  UNL1        0.0054
      6 C           6.3290   -0.3170   19.8590 C.3     1  UNL1        0.0771
      7 C           6.7070   -4.0790   23.2230 C.3     1  UNL1        0.0028
      8 C           5.1340    0.2840   20.1490 C.3     1  UNL1        0.0190
      9 C           4.4370    0.9320   19.1850 C.3     1  UNL1        0.0202
     10 C           4.9340    0.9720   17.9070 C.3     1  UNL1        0.0888
     11 C           6.8180   -0.2570   18.5440 C.3     1  UNL1        0.1046
     12 C           7.2780   -2.8500   22.5130 C.3     1  UNL1        0.0162
     13 C           6.0530   -5.1340   22.5790 C.3     1  UNL1        0.0191
     14 C           5.5610   -6.1960   23.3210 C.3     1  UNL1        0.0015
     15 C           5.7060   -6.2230   24.6900 C.3     1  UNL1        0.0000
     16 C           6.3470   -5.1980   25.3400 C.3     1  UNL1        0.0000
     17 C           6.8460   -4.1290   24.6160 C.3     1  UNL1        0.0001
     18 C           5.8400   -5.1770   21.0650 C.3     1  UNL1        0.1093
     19 C          12.9990    0.3160   23.3270 C.3     1  UNL1        0.0325
     20 C          10.4960   -0.6770   22.6730 C.3     1  UNL1        0.0063
     21 C          11.9360    1.1830   23.1690 C.3     1  UNL1        0.0811
     22 C           8.3280   -0.5400   21.2590 C.3     1  UNL1        0.2125
     23 C           6.5100   -2.1730   21.5140 C.3     1  UNL1        0.0743
     24 N           7.0710   -1.0140   20.8910 N.3     1  UNL1       -0.2483
     25 N           6.1030    0.3900   17.6110 N.3     1  UNL1       -0.2166
     26 N           5.6730   -5.2210   19.9480 N.3     1  UNL1       -0.1314
     27 O           8.8350    0.5930   20.6480 O.3     1  UNL1       -0.2050
     28 CL         14.1790   -2.1550   23.3600 Cl      1  UNL1       -0.1150
     29 CL         12.1750    2.9340   23.3770 Cl      1  UNL1       -0.1150
@<TRIPOS>BOND
     1     2     1    1
     2     5     3    1
     3     8     6    1
     4     9     8    1
     5    10     9    1
     6    11     6    1
     7    12     7    1
     8    12     5    1
     9    13     7    1
    10    14    13    1
    11    15    14    1
    12    16    15    1
    13    17    16    1
    14    17     7    1
    15    18    13    1
    16    19     1    1
    17    20     4    1
    18    20     3    1
    19    20     2    1
    20    21     4    1
    21    21    19    1
    22    22     3    1
    23    23    12    1
    24    24    23    1
    25    24    22    1
    26    24     6    1
    27    25    10    1
    28    25    11    1
    29    26    18    1
    30    27    22    1
    31    28     1    1
    32    29    21    1
