@<TRIPOS>MOLECULE
*****
 21 22 0 0 0
SMALL
GASTEIGER

@<TRIPOS>ATOM
      1 O          11.2350    6.0920   23.8590 O.2     1  UNL1       -0.1503
      2 S          10.2880    5.0260   24.0020 S.O2    1  UNL1        0.0935
      3 O           9.6790    4.8120   25.2800 O.2     1  UNL1       -0.1503
      4 N           9.1110    5.2940   22.9480 N.3     1  UNL1        0.0392
      5 C          11.1100    3.5280   23.5580 C.ar    1  UNL1        0.1263
      6 C          12.3060    3.5800   22.8620 C.ar    1  UNL1        0.0198
      7 C          12.9620    2.4020   22.5590 C.ar    1  UNL1       -0.0017
      8 C          10.5570    2.3160   23.9420 C.ar    1  UNL1        0.0342
      9 C          11.2180    1.1300   23.6250 C.ar    1  UNL1        0.0452
     10 C          12.4380    1.1680   22.9390 C.ar    1  UNL1       -0.0087
     11 C          13.1490   -0.1240   22.6290 C.3     1  UNL1        0.0294
     12 C          12.1630   -1.2590   22.4460 C.3     1  UNL1        0.0261
     13 C          11.2590   -1.3860   23.6600 C.3     1  UNL1        0.0912
     14 N          10.5930   -0.1220   23.9850 N.pl3   1  UNL1       -0.3062
     15 C           9.1330   -0.2040   24.0970 C.3     1  UNL1        0.1115
     16 C           8.6680   -0.7130   25.4490 C.3     1  UNL1        0.1364
     17 N           7.1990   -0.7110   25.4970 N.3     1  UNL1       -0.0802
     18 S           6.3970    0.6820   25.7050 S.O2    1  UNL1        0.0592
     19 O           7.3460    1.6340   26.1910 O.2     1  UNL1       -0.1561
     20 O           5.2470    0.3890   26.5030 O.2     1  UNL1       -0.1561
     21 C           5.8460    1.2150   24.1290 C.3     1  UNL1        0.1975
@<TRIPOS>BOND
     1     2     1    2
     2     3     2    2
     3     2     4    1
     4     5     2    1
     5     6     5   ar
     6     7     6   ar
     7     8     5   ar
     8     9     8   ar
     9    10     9   ar
    10    10     7   ar
    11    11    10    1
    12    12    11    1
    13    13    12    1
    14    14    13    1
    15    14     9    1
    16    15    14    1
    17    16    15    1
    18    17    16    1
    19    18    17    1
    20    19    18    2
    21    20    18    2
    22    18    21    1
