@<TRIPOS>MOLECULE
*****
 25 28 0 0 0
SMALL
GASTEIGER

@<TRIPOS>ATOM
      1 CL         13.9600   -1.6320   21.2970 Cl      1  UNL1       -0.0823
      2 C          12.6380   -1.0270   22.2530 C.ar    1  UNL1        0.0575
      3 C          11.3700   -1.4970   22.0030 C.ar    1  UNL1        0.0088
      4 C          12.8850   -0.1020   23.2390 C.ar    1  UNL1        0.0126
      5 C          11.8350    0.3500   24.0220 C.ar    1  UNL1        0.0151
      6 C          10.5390   -0.1040   23.7840 C.ar    1  UNL1        0.0443
      7 N           9.4580    0.3280   24.5550 N.pl3   1  UNL1       -0.3060
      8 C           9.6710    1.2590   25.6610 C.3     1  UNL1        0.1122
      9 C          10.3000   -1.0300   22.7580 C.ar    1  UNL1        0.0004
     10 C           8.9020   -1.5060   22.4290 C.3     1  UNL1        0.1036
     11 C           7.9830   -1.4390   23.6700 C.3     1  UNL1        0.0350
     12 C           8.0690   -0.0710   24.3430 C.3     1  UNL1        0.0917
     13 C           8.4650   -0.5680   21.3060 C.2     1  UNL1        0.2493
     14 O           9.0620    0.4790   21.0560 O.2     1  UNL1       -0.2726
     15 N           7.3750   -0.9800   20.6280 N.am    1  UNL1       -0.1774
     16 C           6.6560   -0.2600   19.6630 C.ar    1  UNL1        0.0925
     17 C           5.5450    0.5240   20.1000 C.ar    1  UNL1        0.0184
     18 C           5.0680    0.5430   21.4370 C.ar    1  UNL1        0.0014
     19 C           3.9840    1.2970   21.7840 C.ar    1  UNL1        0.0000
     20 C           3.3280    2.0690   20.8380 C.ar    1  UNL1        0.0001
     21 C           3.7580    2.0980   19.5440 C.ar    1  UNL1        0.0016
     22 C           4.8740    1.3240   19.1380 C.ar    1  UNL1        0.0204
     23 C           5.3570    1.2930   17.8080 C.ar    1  UNL1        0.0989
     24 N           6.3880    0.5570   17.4030 N.ar    1  UNL1       -0.2410
     25 C           7.0090   -0.1950   18.3160 C.ar    1  UNL1        0.1154
@<TRIPOS>BOND
     1     2     1    1
     2     3     2   ar
     3     4     2   ar
     4     5     4   ar
     5     6     5   ar
     6     7     6    1
     7     8     7    1
     8     9     6   ar
     9     9     3   ar
    10    10     9    1
    11    11    10    1
    12    12    11    1
    13    12     7    1
    14    10    13    1
    15    14    13    2
    16    15    13   am
    17    16    15    1
    18    17    16   ar
    19    18    17   ar
    20    19    18   ar
    21    20    19   ar
    22    21    20   ar
    23    22    21   ar
    24    22    17   ar
    25    23    22   ar
    26    24    23   ar
    27    25    24   ar
    28    25    16   ar
