@<TRIPOS>MOLECULE
*****
 27 31 0 0 0
SMALL
GASTEIGER

@<TRIPOS>ATOM
      1 O           9.1410    1.6720   21.0260 O.2     1  UNL1       -0.2719
      2 C           8.8250    0.6000   21.4990 C.2     1  UNL1        0.2583
      3 C           9.4370   -0.0570   22.7580 C.3     1  UNL1        0.1741
      4 C           8.7980    0.6700   23.9630 C.3     1  UNL1        0.0806
      5 C           9.8090    1.1310   24.9950 C.3     1  UNL1        0.2080
      6 O          10.9290    1.7980   24.3980 O.3     1  UNL1       -0.4756
      7 C          10.9590    0.0320   22.7340 C.ar    1  UNL1        0.0388
      8 C          11.6070    0.9910   23.5210 C.ar    1  UNL1        0.1366
      9 C          12.9830    1.1420   23.5080 C.ar    1  UNL1        0.0375
     10 C          13.7450    0.3240   22.6950 C.ar    1  UNL1        0.0145
     11 C          11.7440   -0.8010   21.9350 C.ar    1  UNL1        0.0122
     12 C          13.1190   -0.6210   21.9110 C.ar    1  UNL1        0.0576
     13 CL         14.0760   -1.5500   20.7860 Cl      1  UNL1       -0.0823
     14 N           7.8830   -0.3010   20.9990 N.am    1  UNL1       -0.1880
     15 C           7.9460   -1.5250   21.6750 C.2     1  UNL1        0.3335
     16 O           7.2540   -2.5020   21.4360 O.2     1  UNL1       -0.2500
     17 N           8.9090   -1.4110   22.6220 N.am    1  UNL1       -0.1779
     18 C           6.9590    0.0010   19.9240 C.ar    1  UNL1        0.0813
     19 C           5.8060    0.8030   20.1920 C.ar    1  UNL1        0.0172
     20 C           5.3260    1.1210   21.4900 C.ar    1  UNL1        0.0013
     21 C           4.2230    1.9100   21.6620 C.ar    1  UNL1        0.0000
     22 C           3.5390    2.4180   20.5670 C.ar    1  UNL1        0.0001
     23 C           3.9560    2.1400   19.2970 C.ar    1  UNL1        0.0016
     24 C           5.0950    1.3290   19.0730 C.ar    1  UNL1        0.0204
     25 C           5.5790    1.0220   17.7770 C.ar    1  UNL1        0.0989
     26 N           6.6500    0.2800   17.5380 N.ar    1  UNL1       -0.2410
     27 C           7.3150   -0.2100   18.5950 C.ar    1  UNL1        0.1142
@<TRIPOS>BOND
     1     2     1    2
     2     3     2    1
     3     3     4    1
     4     5     4    1
     5     6     5    1
     6     7     3    1
     7     8     7   ar
     8     8     6    1
     9     9     8   ar
    10    10     9   ar
    11    11     7   ar
    12    12    11   ar
    13    12    10   ar
    14    13    12    1
    15    14     2   am
    16    15    14   am
    17    16    15    2
    18    17    15   am
    19    17     3    1
    20    18    14    1
    21    19    18   ar
    22    20    19   ar
    23    21    20   ar
    24    22    21   ar
    25    23    22   ar
    26    24    23   ar
    27    24    19   ar
    28    25    24   ar
    29    26    25   ar
    30    27    26   ar
    31    27    18   ar
