@<TRIPOS>MOLECULE
*****
 22 24 0 0 0
SMALL
GASTEIGER

@<TRIPOS>ATOM
      1 O          11.4780    3.4010   24.4110 O.2     1  UNL1       -0.2726
      2 C          11.4780    3.8120   23.2620 C.2     1  UNL1        0.2513
      3 N          10.9040    3.1620   22.2280 N.am    1  UNL1       -0.1600
      4 C          10.3810    1.8640   22.1780 C.ar    1  UNL1        0.1575
      5 N           9.6900    1.6120   21.0540 N.ar    1  UNL1       -0.2271
      6 C           9.2450    0.3610   20.8690 C.ar    1  UNL1        0.1035
      7 C           9.4490   -0.6730   21.7650 C.ar    1  UNL1        0.0577
      8 C          10.6180    0.8970   23.1630 C.ar    1  UNL1        0.0731
      9 C          10.1360   -0.3830   22.9350 C.ar    1  UNL1        0.1431
     10 O          10.3760   -1.2380   23.9800 O.3     1  UNL1       -0.4713
     11 C           9.9180   -2.5880   23.8740 C.3     1  UNL1        0.2525
     12 C          12.1440    5.1210   22.8930 C.3     1  UNL1        0.1135
     13 C          11.3660    6.3190   23.3880 C.ar    1  UNL1       -0.0130
     14 C          11.7370    6.9750   24.5360 C.ar    1  UNL1       -0.0038
     15 C          11.0470    8.1270   24.9820 C.ar    1  UNL1       -0.0003
     16 C           9.9510    8.6020   24.2200 C.ar    1  UNL1       -0.0000
     17 C           9.5830    7.8920   23.0550 C.ar    1  UNL1       -0.0003
     18 C          10.2760    6.7860   22.6630 C.ar    1  UNL1       -0.0038
     19 C          11.4160    8.8270   26.1590 C.ar    1  UNL1       -0.0000
     20 C          10.7380    9.9500   26.5390 C.ar    1  UNL1       -0.0000
     21 C           9.6700   10.4190   25.7890 C.ar    1  UNL1       -0.0000
     22 C           9.2750    9.7680   24.6540 C.ar    1  UNL1       -0.0000
@<TRIPOS>BOND
     1     2     1    2
     2     3     2   am
     3     4     3    1
     4     5     4   ar
     5     6     5   ar
     6     7     6   ar
     7     8     4   ar
     8     9     7   ar
     9     9     8   ar
    10    10     9    1
    11    11    10    1
    12    12     2    1
    13    13    12    1
    14    14    13   ar
    15    15    14   ar
    16    16    15   ar
    17    17    16   ar
    18    18    17   ar
    19    18    13   ar
    20    19    15   ar
    21    20    19   ar
    22    21    20   ar
    23    22    21   ar
    24    22    16   ar
