@<TRIPOS>MOLECULE
*****
 30 33 0 0 0
SMALL
GASTEIGER

@<TRIPOS>ATOM
      1 S          13.5960   -1.7370   22.7400 S.2     1  UNL1       -0.0862
      2 N           8.5910   -4.2240   26.2140 N.am    1  UNL1       -0.1792
      3 N           7.5310   -0.2320   18.5050 N.ar    1  UNL1       -0.0634
      4 N           7.1730   -0.0970   19.8080 N.ar    1  UNL1       -0.2223
      5 C           8.1970   -5.6600   28.0800 C.3     1  UNL1        0.0872
      6 C          12.6350   -0.1370   24.4780 C.ar    1  UNL1        0.0049
      7 C           3.7670    2.1000   19.3640 C.ar    1  UNL1        0.0017
      8 O           9.0910    1.4680   20.9740 O.2     1  UNL1       -0.2723
      9 C           8.1120   -1.8690   25.5810 C.ar    1  UNL1        0.0179
     10 C           7.9260   -4.3520   27.3870 C.2     1  UNL1        0.2456
     11 C           5.7220    0.9650   18.5890 C.ar    1  UNL1        0.1217
     12 C           9.0370   -1.0430   23.5160 C.ar    1  UNL1        0.0543
     13 C           9.4620   -2.3310   23.2050 C.ar    1  UNL1        0.0162
     14 C           9.2350   -3.3720   24.0830 C.ar    1  UNL1        0.0179
     15 C          12.2790   -0.7590   22.2850 C.ar    1  UNL1        0.0328
     16 C          11.8470    0.0370   23.3060 C.ar    1  UNL1        0.0050
     17 C           5.2300    1.0270   20.9700 C.ar    1  UNL1        0.0204
     18 C           4.5840    1.7130   18.3090 C.ar    1  UNL1        0.0225
     19 C          10.5890    0.8560   23.1770 C.3     1  UNL1        0.1253
     20 C          13.6270   -1.0770   24.3300 C.ar    1  UNL1        0.0352
     21 C           4.0870    1.7610   20.6790 C.ar    1  UNL1        0.0016
     22 C           8.8880    0.3950   21.5150 C.2     1  UNL1        0.2545
     23 C           6.9720   -6.2400   28.7500 C.3     1  UNL1        0.0101
     24 N           9.4530    0.0650   22.7130 N.am    1  UNL1       -0.2527
     25 O           7.1670   -3.5060   27.8530 O.2     1  UNL1       -0.2730
     26 C           8.3260   -0.8270   24.6940 C.ar    1  UNL1        0.0162
     27 C           8.5960   -3.1430   25.2960 C.ar    1  UNL1        0.0734
     28 C           7.9960   -0.6610   20.8570 C.3     1  UNL1        0.2141
     29 C           6.0310    0.6370   19.9060 C.ar    1  UNL1        0.0994
     30 N           6.6720    0.4050   17.7630 N.ar    1  UNL1       -0.1288
@<TRIPOS>BOND
     1     4     3   ar
     2    10     5    1
     3    10     2   am
     4    13    12   ar
     5    14    13   ar
     6    15     1   ar
     7    16    15   ar
     8    16     6   ar
     9    18     7   ar
    10    18    11   ar
    11    19    16    1
    12    20     6   ar
    13    20     1   ar
    14    21    17   ar
    15    21     7   ar
    16    22     8    2
    17    23     5    1
    18    24    22   am
    19    24    19    1
    20    24    12    1
    21    25    10    2
    22    26    12   ar
    23    26     9   ar
    24    27    14   ar
    25    27     9   ar
    26    27     2    1
    27    28    22    1
    28    28     4    1
    29    29    17   ar
    30    29    11   ar
    31    29     4   ar
    32    30    11   ar
    33    30     3   ar
