@<TRIPOS>MOLECULE
*****
 18 19 0 0 0
SMALL
GASTEIGER

@<TRIPOS>ATOM
      1 N           6.5690   -5.2270   21.7110 N.am    1  UNL1       -0.2766
      2 C           7.7760   -3.6340   20.2840 C.3     1  UNL1        0.0948
      3 O           5.7550   -4.7490   19.6770 O.2     1  UNL1       -0.2749
      4 C           6.6280   -4.5950   20.5230 C.2     1  UNL1        0.2262
      5 C           5.5140   -6.1730   22.0650 C.3     1  UNL1        0.1126
      6 C           4.7440   -5.6510   23.2460 C.3     1  UNL1        0.1173
      7 C           6.7540   -4.4680   24.0110 C.3     1  UNL1        0.1173
      8 C           7.5000   -5.0070   22.8200 C.3     1  UNL1        0.1126
      9 C           4.1490   -3.8910   25.9950 C.ar    1  UNL1        0.1524
     10 C           4.6520   -2.6390   26.2590 C.ar    1  UNL1        0.0280
     11 C           3.6810   -1.6360   26.0120 C.ar    1  UNL1        0.0199
     12 C           2.4240   -2.1940   25.8080 C.ar    1  UNL1        0.0882
     13 N           5.6830   -5.4180   24.3570 N.3     1  UNL1       -0.1516
     14 O           4.1570   -6.4430   25.9970 O.2     1  UNL1       -0.1523
     15 O           6.1940   -5.2450   26.7490 O.2     1  UNL1       -0.1523
     16 S           5.0740   -5.3530   25.8680 S.O2    1  UNL1        0.0691
     17 S           2.4530   -3.9090   25.7550 S.2     1  UNL1       -0.0557
     18 CL          0.9410   -1.3570   25.6200 Cl      1  UNL1       -0.0751
@<TRIPOS>BOND
     1     4     3    2
     2     4     2    1
     3     4     1   am
     4     5     1    1
     5     6     5    1
     6     8     1    1
     7     8     7    1
     8    10     9   ar
     9    11    10   ar
    10    12    11   ar
    11    13     6    1
    12    13     7    1
    13    16    14    2
    14    16     9    1
    15    16    15    2
    16    16    13    1
    17    17    12   ar
    18    17     9   ar
    19    18    12    1
