@<TRIPOS>MOLECULE
*****
 31 33 0 0 0
SMALL
GASTEIGER

@<TRIPOS>ATOM
      1 O           9.2210    1.1710   20.9590 O.2     1  UNL1       -0.2712
      2 C           8.2290    1.1290   21.6750 C.2     1  UNL1        0.2641
      3 N           7.9810    2.0390   22.6200 N.am    1  UNL1       -0.2053
      4 C           8.8900    3.1520   22.8760 C.3     1  UNL1        0.1004
      5 C           9.6940    2.9190   24.1490 C.3     1  UNL1        0.0538
      6 C          10.6030    4.1060   24.3700 C.3     1  UNL1        0.1439
      7 O           9.8570    5.3350   24.4380 O.3     1  UNL1       -0.3537
      8 C           9.1330    5.5810   23.2170 C.3     1  UNL1        0.1439
      9 C           8.1410    4.4770   22.9300 C.3     1  UNL1        0.0538
     10 C           7.1400    0.0680   21.4390 C.3     1  UNL1        0.1817
     11 C           6.4350    0.2780   20.1090 C.ar    1  UNL1        0.0241
     12 C           5.2950    1.0660   20.0280 C.ar    1  UNL1        0.0010
     13 C           4.7890    1.4310   18.7970 C.ar    1  UNL1        0.0204
     14 C           5.4440    0.9870   17.6640 C.ar    1  UNL1        0.0989
     15 N           6.5380    0.2190   17.7010 N.ar    1  UNL1       -0.2426
     16 C           7.0000   -0.1300   18.9070 C.ar    1  UNL1        0.0967
     17 N           7.5430   -1.3230   21.7780 N.am    1  UNL1       -0.2480
     18 C           6.7300   -2.3860   21.5080 C.2     1  UNL1        0.2299
     19 O           5.5380   -2.2430   21.3030 O.2     1  UNL1       -0.2745
     20 C           7.3500   -3.7520   21.4100 C.3     1  UNL1        0.0857
     21 C           7.1090   -4.3540   20.0370 C.3     1  UNL1        0.0101
     22 C           8.7770   -1.4840   22.4940 C.ar    1  UNL1        0.0545
     23 C           8.7960   -1.4100   23.8850 C.ar    1  UNL1        0.0146
     24 C           9.9910   -1.5350   24.5730 C.ar    1  UNL1       -0.0030
     25 C          11.1940   -1.7320   23.9010 C.ar    1  UNL1       -0.0227
     26 C          12.5130   -1.8010   24.6870 C.3     1  UNL1        0.0189
     27 C          12.5740   -3.0620   25.5700 C.3     1  UNL1        0.0044
     28 C          13.7340   -1.8240   23.7690 C.3     1  UNL1        0.0044
     29 C          12.6380   -0.5750   25.5920 C.3     1  UNL1        0.0044
     30 C          11.1630   -1.8220   22.5100 C.ar    1  UNL1       -0.0030
     31 C           9.9740   -1.7010   21.8090 C.ar    1  UNL1        0.0146
@<TRIPOS>BOND
     1     2     1    2
     2     3     2   am
     3     4     3    1
     4     5     4    1
     5     6     5    1
     6     7     6    1
     7     8     7    1
     8     9     4    1
     9     9     8    1
    10    10     2    1
    11    11    10    1
    12    12    11   ar
    13    13    12   ar
    14    14    13   ar
    15    15    14   ar
    16    16    15   ar
    17    16    11   ar
    18    17    10    1
    19    18    17   am
    20    19    18    2
    21    20    18    1
    22    21    20    1
    23    22    17    1
    24    23    22   ar
    25    24    23   ar
    26    25    24   ar
    27    26    25    1
    28    26    27    1
    29    28    26    1
    30    29    26    1
    31    30    25   ar
    32    31    22   ar
    33    31    30   ar
