@<TRIPOS>MOLECULE
*****
 19 21 0 0 0
SMALL
GASTEIGER

@<TRIPOS>ATOM
      1 O           9.2350    1.2380   21.0870 O.2     1  UNL1       -0.2727
      2 C           9.2220    0.0920   21.4930 C.2     1  UNL1        0.2506
      3 N           9.9610   -0.3040   22.5490 N.am    1  UNL1       -0.2779
      4 C          10.0400   -1.6830   23.0490 C.3     1  UNL1        0.0935
      5 C          11.4870   -2.1700   23.0640 C.3     1  UNL1        0.0216
      6 C          10.8040    0.6420   23.2930 C.3     1  UNL1        0.0935
      7 C          12.2620    0.1800   23.3100 C.3     1  UNL1        0.0216
      8 C          12.3970   -1.2370   23.8500 C.3     1  UNL1        0.0034
      9 C          13.8420   -1.7150   23.8480 C.3     1  UNL1        0.0001
     10 C           8.3550   -0.9630   20.8080 C.3     1  UNL1        0.2137
     11 N           7.4860   -0.3530   19.8340 N.ar    1  UNL1       -0.2223
     12 C           6.3670    0.3990   20.0180 C.ar    1  UNL1        0.0994
     13 C           5.9840    0.7760   18.7370 C.ar    1  UNL1        0.1217
     14 N           6.8750    0.2320   17.8390 N.ar    1  UNL1       -0.1288
     15 N           7.7640   -0.4430   18.5050 N.ar    1  UNL1       -0.0634
     16 C           5.6380    0.7770   21.1460 C.ar    1  UNL1        0.0204
     17 C           4.4880    1.5350   20.9410 C.ar    1  UNL1        0.0016
     18 C           4.1060    1.9310   19.6600 C.ar    1  UNL1        0.0017
     19 C           4.8520    1.5610   18.5460 C.ar    1  UNL1        0.0225
@<TRIPOS>BOND
     1     2     1    2
     2     3     2   am
     3     4     3    1
     4     5     4    1
     5     6     3    1
     6     7     6    1
     7     8     7    1
     8     8     5    1
     9     8     9    1
    10    10     2    1
    11    11    10    1
    12    12    11   ar
    13    13    12   ar
    14    14    13   ar
    15    15    14   ar
    16    15    11   ar
    17    16    12   ar
    18    17    16   ar
    19    18    17   ar
    20    19    18   ar
    21    19    13   ar
