
     RDKit          3D

 22 24  0  0  0  0  0  0  0  0999 V2000
   13.7080   -1.4360   21.9450 Cl  0  0  0  0  0  0  0  0  0  0  0  0
   12.4020   -0.6490   22.7720 C   0  0  0  0  0  0  0  0  0  0  0  0
   12.6450    0.3940   23.6500 C   0  0  0  0  0  0  0  0  0  0  0  0
   14.2630    0.8660   24.0460 Cl  0  0  0  0  0  0  0  0  0  0  0  0
   11.1060   -1.0710   22.5350 C   0  0  0  0  0  0  0  0  0  0  0  0
   10.0330   -0.4440   23.1620 C   0  0  0  0  0  0  0  0  0  0  0  0
   10.2920    0.6110   24.0260 C   0  0  0  0  0  0  0  0  0  0  0  0
   11.5860    1.0310   24.2710 C   0  0  0  0  0  0  0  0  0  0  0  0
    8.6180   -0.9200   22.9200 C   0  0  0  0  0  0  0  0  0  0  0  0
    8.1760   -0.7750   21.4770 C   0  0  0  0  0  0  0  0  0  0  0  0
    8.8350   -1.2470   20.5540 O   0  0  0  0  0  0  0  0  0  0  0  0
    7.0020   -0.1190   21.3130 N   0  0  0  0  0  0  0  0  0  0  0  0
    6.3010    0.1950   20.1230 C   0  0  0  0  0  0  0  0  0  0  0  0
    5.0680    0.9100   20.2450 C   0  0  0  0  0  0  0  0  0  0  0  0
    4.4580    1.2320   21.4840 C   0  0  0  0  0  0  0  0  0  0  0  0
    3.2910    1.9370   21.4900 C   0  0  0  0  0  0  0  0  0  0  0  0
    2.6600    2.3620   20.3840 N   0  0  0  0  0  0  0  0  0  0  0  0
    3.2080    2.0670   19.2070 C   0  0  0  0  0  0  0  0  0  0  0  0
    4.4130    1.3350   19.0560 C   0  0  0  0  0  0  0  0  0  0  0  0
    5.0120    0.9960   17.8180 C   0  0  0  0  0  0  0  0  0  0  0  0
    6.1400    0.3140   17.7000 N   0  0  0  0  0  0  0  0  0  0  0  0
    6.7530   -0.0680   18.8280 C   0  0  0  0  0  0  0  0  0  0  0  0
  2  1  1  0
  3  2  2  0
  4  3  1  0
  5  2  1  0
  6  5  2  0
  7  6  1  0
  8  7  2  0
  8  3  1  0
  9  6  1  0
 10  9  1  0
 11 10  2  0
 12 10  1  0
 13 12  1  0
 14 13  1  0
 15 14  2  0
 16 15  1  0
 17 16  2  0
 18 17  1  0
 19 18  2  0
 19 14  1  0
 20 19  1  0
 21 20  2  0
 22 21  1  0
 22 13  2  0
M  END
