@<TRIPOS>MOLECULE
*****
 22 24 0 0 0
SMALL
GASTEIGER

@<TRIPOS>ATOM
      1 CL         13.7080   -1.4360   21.9450 Cl      1  UNL1       -0.0814
      2 C          12.4020   -0.6490   22.7720 C.ar    1  UNL1        0.0679
      3 C          12.6450    0.3940   23.6500 C.ar    1  UNL1        0.0682
      4 CL         14.2630    0.8660   24.0460 Cl      1  UNL1       -0.0814
      5 C          11.1060   -1.0710   22.5350 C.ar    1  UNL1        0.0085
      6 C          10.0330   -0.4440   23.1620 C.ar    1  UNL1       -0.0121
      7 C          10.2920    0.6110   24.0260 C.ar    1  UNL1       -0.0029
      8 C          11.5860    1.0310   24.2710 C.ar    1  UNL1        0.0119
      9 C           8.6180   -0.9200   22.9200 C.3     1  UNL1        0.1135
     10 C           8.1760   -0.7750   21.4770 C.2     1  UNL1        0.2500
     11 O           8.8350   -1.2470   20.5540 O.2     1  UNL1       -0.2726
     12 N           7.0020   -0.1190   21.3130 N.am    1  UNL1       -0.1773
     13 C           6.3010    0.1950   20.1230 C.ar    1  UNL1        0.0926
     14 C           5.0680    0.9100   20.2450 C.ar    1  UNL1        0.0214
     15 C           4.4580    1.2320   21.4840 C.ar    1  UNL1        0.0221
     16 C           3.2910    1.9370   21.4900 C.ar    1  UNL1        0.0989
     17 N           2.6600    2.3620   20.3840 N.ar    1  UNL1       -0.2423
     18 C           3.2080    2.0670   19.2070 C.ar    1  UNL1        0.1004
     19 C           4.4130    1.3350   19.0560 C.ar    1  UNL1        0.0396
     20 C           5.0120    0.9960   17.8180 C.ar    1  UNL1        0.1005
     21 N           6.1400    0.3140   17.7000 N.ar    1  UNL1       -0.2409
     22 C           6.7530   -0.0680   18.8280 C.ar    1  UNL1        0.1154
@<TRIPOS>BOND
     1     2     1    1
     2     3     2   ar
     3     4     3    1
     4     5     2   ar
     5     6     5   ar
     6     7     6   ar
     7     8     7   ar
     8     8     3   ar
     9     9     6    1
    10    10     9    1
    11    11    10    2
    12    12    10   am
    13    13    12    1
    14    14    13   ar
    15    15    14   ar
    16    16    15   ar
    17    17    16   ar
    18    18    17   ar
    19    19    18   ar
    20    19    14   ar
    21    20    19   ar
    22    21    20   ar
    23    22    21   ar
    24    22    13   ar
