@<TRIPOS>MOLECULE
*****
 21 23 0 0 0
SMALL
GASTEIGER

@<TRIPOS>ATOM
      1 O           5.3920   -3.1310   21.2420 O.2     1  UNL1       -0.2733
      2 C           5.6430   -2.6520   22.3440 C.2     1  UNL1        0.2431
      3 N           4.9990   -3.0420   23.4380 N.am    1  UNL1       -0.2053
      4 C           5.4760   -2.9120   24.8180 C.3     1  UNL1        0.1169
      5 C           6.2640   -1.6220   24.9710 C.3     1  UNL1        0.0456
      6 C           6.7020   -1.5960   22.5050 C.3     1  UNL1        0.1085
      7 C           7.3390   -1.4990   23.8940 C.3     1  UNL1        0.1062
      8 N           8.3830   -2.5090   24.0700 N.am    1  UNL1       -0.2064
      9 C           9.5580   -2.2230   24.6370 C.2     1  UNL1        0.2452
     10 O           9.8620   -1.0880   24.9860 O.2     1  UNL1       -0.2730
     11 C          10.4820   -3.4210   24.8640 C.3     1  UNL1        0.1070
     12 C          10.1590   -4.0410   26.2380 C.3     1  UNL1        0.0610
     13 C          11.3750   -4.7190   26.8090 C.3     1  UNL1        0.2062
     14 O          12.5030   -3.8320   26.8960 O.3     1  UNL1       -0.4757
     15 C          11.9230   -2.9720   24.7030 C.ar    1  UNL1        0.0211
     16 C          12.3720   -2.3400   23.5440 C.ar    1  UNL1        0.0106
     17 C          13.7000   -1.9810   23.4290 C.ar    1  UNL1        0.0576
     18 CL         14.2560   -1.2700   21.9360 Cl      1  UNL1       -0.0823
     19 C          12.8490   -3.2210   25.7200 C.ar    1  UNL1        0.1350
     20 C          14.1790   -2.8460   25.5990 C.ar    1  UNL1        0.0374
     21 C          14.6050   -2.2140   24.4440 C.ar    1  UNL1        0.0145
@<TRIPOS>BOND
     1     2     1    2
     2     3     2   am
     3     4     3    1
     4     5     4    1
     5     6     2    1
     6     7     6    1
     7     7     5    1
     8     7     8    1
     9     9     8   am
    10    10     9    2
    11    11     9    1
    12    12    11    1
    13    13    12    1
    14    14    13    1
    15    15    11    1
    16    16    15   ar
    17    17    16   ar
    18    18    17    1
    19    19    15   ar
    20    19    14    1
    21    20    19   ar
    22    21    20   ar
    23    21    17   ar
