@<TRIPOS>MOLECULE
*****
 26 29 0 0 0
SMALL
GASTEIGER

@<TRIPOS>ATOM
      1 O           9.2780    1.1760   21.2630 O.2     1  UNL1       -0.2726
      2 C           8.8300    0.1010   21.6360 C.2     1  UNL1        0.2501
      3 C           9.4340   -0.6250   22.8610 C.3     1  UNL1        0.1136
      4 C          10.9130   -0.2620   22.9140 C.ar    1  UNL1        0.0218
      5 C          11.7910   -0.8140   21.9830 C.ar    1  UNL1        0.0106
      6 C          13.1380   -0.5170   22.0580 C.ar    1  UNL1        0.0576
      7 CL         14.2270   -1.2740   20.9300 Cl      1  UNL1       -0.0823
      8 C          13.6460    0.3270   23.0230 C.ar    1  UNL1        0.0145
      9 C          12.7910    0.8690   23.9650 C.ar    1  UNL1        0.0374
     10 C          11.4340    0.5860   23.8980 C.ar    1  UNL1        0.1350
     11 O          10.6450    1.2870   24.7800 O.3     1  UNL1       -0.4757
     12 C           9.2150    1.2480   24.5560 C.3     1  UNL1        0.2063
     13 C           8.7220   -0.1200   24.1390 C.3     1  UNL1        0.0617
     14 C           9.3160   -2.1700   22.7830 C.3     1  UNL1        0.1222
     15 N           7.9620   -2.7000   22.9290 N.3     1  UNL1       -0.1305
     16 N           7.9210   -0.5410   20.8930 N.am    1  UNL1       -0.1773
     17 C           6.9190   -0.1600   19.9910 C.ar    1  UNL1        0.0925
     18 C           5.8510    0.7130   20.3720 C.ar    1  UNL1        0.0184
     19 C           5.3940    0.8640   21.7110 C.ar    1  UNL1        0.0014
     20 C           4.2740    1.5920   21.9930 C.ar    1  UNL1        0.0000
     21 C           3.5630    2.2240   20.9800 C.ar    1  UNL1        0.0001
     22 C           3.9690    2.1250   19.6790 C.ar    1  UNL1        0.0016
     23 C           5.1160    1.3630   19.3370 C.ar    1  UNL1        0.0204
     24 C           5.5200    1.1400   18.0000 C.ar    1  UNL1        0.0989
     25 N           6.5090    0.3330   17.6500 N.ar    1  UNL1       -0.2410
     26 C           7.1540   -0.3160   18.6260 C.ar    1  UNL1        0.1154
@<TRIPOS>BOND
     1     2     1    2
     2     3     2    1
     3     4     3    1
     4     5     4   ar
     5     6     5   ar
     6     7     6    1
     7     8     6   ar
     8     9     8   ar
     9    10     9   ar
    10    10     4   ar
    11    11    10    1
    12    12    11    1
    13    13    12    1
    14    13     3    1
    15     3    14    1
    16    15    14    1
    17    16     2   am
    18    17    16    1
    19    18    17   ar
    20    19    18   ar
    21    20    19   ar
    22    21    20   ar
    23    22    21   ar
    24    23    22   ar
    25    23    18   ar
    26    24    23   ar
    27    25    24   ar
    28    26    25   ar
    29    26    17   ar
