@<TRIPOS>MOLECULE
*****
 37 41 0 0 0
SMALL
GASTEIGER

@<TRIPOS>ATOM
      1 C           8.4930   -0.2940   21.2570 C.3     1  UNL1        0.2125
      2 C           8.6590   -2.1640   22.7470 C.3     1  UNL1        0.0055
      3 C           9.2270   -0.9870   22.2430 C.3     1  UNL1        0.0464
      4 C          10.5860   -0.4900   22.7150 C.3     1  UNL1        0.0075
      5 C          11.6570   -1.3890   22.7330 C.3     1  UNL1        0.0165
      6 C           6.4980   -0.0640   19.8160 C.3     1  UNL1        0.0771
      7 C          12.9250   -0.9470   23.1490 C.3     1  UNL1        0.0823
      8 C          13.1180    0.3900   23.5390 C.3     1  UNL1        0.0458
      9 C          12.0540    1.2980   23.4960 C.3     1  UNL1        0.1165
     10 C          11.5010    3.6650   23.3020 C.3     1  UNL1        0.1432
     11 C          12.0900    4.9920   23.7880 C.3     1  UNL1        0.0447
     12 C          10.7860    0.8530   23.0830 C.3     1  UNL1        0.0298
     13 C           6.9100   -0.1580   18.4810 C.3     1  UNL1        0.1046
     14 C           5.0590    1.2480   17.8650 C.3     1  UNL1        0.0888
     15 C           4.6550    1.3310   19.2040 C.3     1  UNL1        0.0202
     16 C           5.3690    0.6630   20.2010 C.3     1  UNL1        0.0190
     17 C           6.7080   -1.9320   21.3530 C.3     1  UNL1        0.0744
     18 C           7.4210   -2.6450   22.3040 C.3     1  UNL1        0.0215
     19 C           6.8380   -3.9180   22.9200 C.3     1  UNL1        0.0664
     20 C           6.0730   -4.8800   22.2130 C.3     1  UNL1        0.2301
     21 C           7.0850   -4.0870   24.2940 C.3     1  UNL1        0.0968
     22 C           5.8510   -6.1440   24.2800 C.3     1  UNL1        0.3059
     23 C          11.5660    5.6690   24.8930 C.3     1  UNL1        0.0037
     24 C          12.1580    6.8770   25.3090 C.3     1  UNL1        0.0002
     25 C          13.2690    7.4090   24.6330 C.3     1  UNL1        0.0013
     26 C          13.7990    6.7260   23.5300 C.3     1  UNL1        0.0163
     27 C          13.2050    5.5200   23.1240 C.3     1  UNL1        0.0823
     28 N           7.2530   -0.7680   20.8230 N.3     1  UNL1       -0.2483
     29 N           6.1800    0.5000   17.4880 N.3     1  UNL1       -0.2166
     30 N           5.5790   -5.9930   22.9080 N.3     1  UNL1       -0.1436
     31 N           6.6020   -5.1920   24.9750 N.3     1  UNL1       -0.1734
     32 O           8.9910    0.8810   20.7030 O.3     1  UNL1       -0.2050
     33 O          12.2810    2.6380   23.8680 O.3     1  UNL1       -0.3562
     34 O           5.7870   -4.7530   20.8460 O.3     1  UNL1       -0.2035
     35 O           5.3760   -7.2420   24.9900 O.3     1  UNL1       -0.1830
     36 CL         14.3010   -2.0870   23.2130 Cl      1  UNL1       -0.1149
     37 CL         13.8360    4.6160   21.7220 Cl      1  UNL1       -0.1149
@<TRIPOS>BOND
     1     3     1    1
     2     3     2    1
     3     4     3    1
     4     5     4    1
     5     7     5    1
     6     8     7    1
     7     9     8    1
     8    11    10    1
     9    12     4    1
    10    12     9    1
    11    13     6    1
    12    15    14    1
    13    16    15    1
    14    16     6    1
    15    18    17    1
    16    18     2    1
    17    18    19    1
    18    20    19    1
    19    21    19    1
    20    23    11    1
    21    24    23    1
    22    25    24    1
    23    26    25    1
    24    27    11    1
    25    27    26    1
    26    28    17    1
    27    28     6    1
    28    28     1    1
    29    29    14    1
    30    29    13    1
    31    30    22    1
    32    30    20    1
    33    31    22    1
    34    31    21    1
    35    32     1    1
    36    33    10    1
    37    33     9    1
    38    34    20    1
    39    35    22    1
    40    36     7    1
    41    37    27    1
