
     RDKit          3D

 24 27  0  0  0  0  0  0  0  0999 V2000
   14.0310   -1.5770   21.1840 Cl  0  0  0  0  0  0  0  0  0  0  0  0
   12.9870   -0.8530   22.3770 C   0  0  0  0  0  0  0  0  0  0  0  0
   13.5480   -0.1730   23.4390 C   0  0  0  0  0  0  0  0  0  0  0  0
   12.7100    0.4130   24.3740 C   0  0  0  0  0  0  0  0  0  0  0  0
   11.3350    0.3380   24.2220 C   0  0  0  0  0  0  0  0  0  0  0  0
   11.6160   -0.9500   22.2170 C   0  0  0  0  0  0  0  0  0  0  0  0
   10.7740   -0.3330   23.1400 C   0  0  0  0  0  0  0  0  0  0  0  0
    9.2590   -0.3730   22.9430 C   0  0  1  0  0  0  0  0  0  0  0  0
    8.5590    0.2170   24.0370 O   0  0  0  0  0  0  0  0  0  0  0  0
    8.8250    0.3800   21.6700 C   0  0  0  0  0  0  0  0  0  0  0  0
    9.3160    1.4070   21.2440 O   0  0  0  0  0  0  0  0  0  0  0  0
    7.7540   -0.2810   21.1430 N   0  0  0  0  0  0  0  0  0  0  0  0
    7.4850   -1.5700   21.8090 C   0  0  0  0  0  0  0  0  0  0  0  0
    8.7140   -1.7960   22.6810 C   0  0  0  0  0  0  0  0  0  0  0  0
    6.9060    0.2180   20.1010 C   0  0  0  0  0  0  0  0  0  0  0  0
    5.7880    1.0510   20.4140 C   0  0  0  0  0  0  0  0  0  0  0  0
    5.4280    1.4360   21.7340 C   0  0  0  0  0  0  0  0  0  0  0  0
    4.3490    2.2420   21.9620 C   0  0  0  0  0  0  0  0  0  0  0  0
    3.5760    2.7070   20.9050 C   0  0  0  0  0  0  0  0  0  0  0  0
    3.8780    2.3650   19.6170 C   0  0  0  0  0  0  0  0  0  0  0  0
    4.9910    1.5300   19.3350 C   0  0  0  0  0  0  0  0  0  0  0  0
    5.3640    1.1540   18.0200 C   0  0  0  0  0  0  0  0  0  0  0  0
    6.4070    0.3860   17.7340 N   0  0  0  0  0  0  0  0  0  0  0  0
    7.1410   -0.0650   18.7600 C   0  0  0  0  0  0  0  0  0  0  0  0
  2  1  1  0
  3  2  2  0
  4  3  1  0
  5  4  2  0
  6  2  1  0
  7  6  2  0
  7  5  1  0
  8  7  1  0
  8  9  1  1
 10  8  1  0
 11 10  2  0
 12 10  1  0
 13 12  1  0
 14 13  1  0
 14  8  1  0
 15 12  1  0
 16 15  1  0
 17 16  2  0
 18 17  1  0
 19 18  2  0
 20 19  1  0
 21 20  2  0
 21 16  1  0
 22 21  1  0
 23 22  2  0
 24 23  1  0
 24 15  2  0
M  END
