@<TRIPOS>MOLECULE
*****
 24 27 0 0 0
SMALL
GASTEIGER

@<TRIPOS>ATOM
      1 CL         14.0310   -1.5770   21.1840 Cl      1  UNL1       -0.0823
      2 C          12.9870   -0.8530   22.3770 C.ar    1  UNL1        0.0574
      3 C          13.5480   -0.1730   23.4390 C.ar    1  UNL1        0.0114
      4 C          12.7100    0.4130   24.3740 C.ar    1  UNL1        0.0006
      5 C          11.3350    0.3380   24.2220 C.ar    1  UNL1       -0.0014
      6 C          11.6160   -0.9500   22.2170 C.ar    1  UNL1        0.0099
      7 C          10.7740   -0.3330   23.1400 C.ar    1  UNL1        0.0143
      8 C           9.2590   -0.3730   22.9430 C.3     1  UNL1        0.2150
      9 O           8.5590    0.2170   24.0370 O.3     1  UNL1       -0.2117
     10 C           8.8250    0.3800   21.6700 C.2     1  UNL1        0.2610
     11 O           9.3160    1.4070   21.2440 O.2     1  UNL1       -0.2715
     12 N           7.7540   -0.2810   21.1430 N.am    1  UNL1       -0.2548
     13 C           7.4850   -1.5700   21.8090 C.3     1  UNL1        0.1017
     14 C           8.7140   -1.7960   22.6810 C.3     1  UNL1        0.0656
     15 C           6.9060    0.2180   20.1010 C.ar    1  UNL1        0.0731
     16 C           5.7880    1.0510   20.4140 C.ar    1  UNL1        0.0167
     17 C           5.4280    1.4360   21.7340 C.ar    1  UNL1        0.0013
     18 C           4.3490    2.2420   21.9620 C.ar    1  UNL1        0.0000
     19 C           3.5760    2.7070   20.9050 C.ar    1  UNL1        0.0001
     20 C           3.8780    2.3650   19.6170 C.ar    1  UNL1        0.0016
     21 C           4.9910    1.5300   19.3350 C.ar    1  UNL1        0.0204
     22 C           5.3640    1.1540   18.0200 C.ar    1  UNL1        0.0989
     23 N           6.4070    0.3860   17.7340 N.ar    1  UNL1       -0.2410
     24 C           7.1410   -0.0650   18.7600 C.ar    1  UNL1        0.1137
@<TRIPOS>BOND
     1     2     1    1
     2     3     2   ar
     3     4     3   ar
     4     5     4   ar
     5     6     2   ar
     6     7     6   ar
     7     7     5   ar
     8     8     7    1
     9     8     9    1
    10    10     8    1
    11    11    10    2
    12    12    10   am
    13    13    12    1
    14    14    13    1
    15    14     8    1
    16    15    12    1
    17    16    15   ar
    18    17    16   ar
    19    18    17   ar
    20    19    18   ar
    21    20    19   ar
    22    21    20   ar
    23    21    16   ar
    24    22    21   ar
    25    23    22   ar
    26    24    23   ar
    27    24    15   ar
