@<TRIPOS>MOLECULE
*****
 26 28 0 0 0
SMALL
GASTEIGER

@<TRIPOS>ATOM
      1 O           8.9790    1.6450   20.9330 O.2     1  UNL1       -0.2507
      2 C           8.7400    0.9880   21.9310 C.2     1  UNL1        0.3238
      3 N           8.8380    1.5360   23.1590 N.am    1  UNL1       -0.1818
      4 C           9.1440    2.9340   23.3640 C.3     1  UNL1        0.1656
      5 C          10.5800    3.2770   23.1270 C.ar    1  UNL1        0.1227
      6 C          11.2030    4.4890   23.1350 C.ar    1  UNL1        0.1150
      7 N          11.5050    2.3330   22.8170 N.ar    1  UNL1       -0.1313
      8 N          12.6660    2.9130   22.6360 N.ar    1  UNL1       -0.0640
      9 N          12.4780    4.2310   22.8150 N.ar    1  UNL1       -0.2284
     10 C          13.5480    5.1880   22.5750 C.3     1  UNL1        0.1555
     11 N           8.4080   -0.3360   21.8460 N.am    1  UNL1       -0.2584
     12 C           8.2490   -0.9660   20.5330 C.3     1  UNL1        0.1233
     13 C           7.2170   -0.3190   19.6370 C.ar    1  UNL1        0.0169
     14 C           7.4170   -0.2110   18.2710 C.ar    1  UNL1        0.0962
     15 N           6.5970    0.4430   17.4410 N.ar    1  UNL1       -0.2426
     16 C           5.5090    1.0150   17.9740 C.ar    1  UNL1        0.0989
     17 C           5.2010    0.9440   19.3170 C.ar    1  UNL1        0.0204
     18 C           6.0660    0.2600   20.1520 C.ar    1  UNL1        0.0005
     19 C           8.2880   -1.2350   23.0030 C.3     1  UNL1        0.1000
     20 C           9.4560   -2.2110   23.1450 C.3     1  UNL1        0.0479
     21 C          10.7760   -1.4910   23.2870 C.ar    1  UNL1       -0.0205
     22 C          10.9890   -0.6040   24.3360 C.ar    1  UNL1       -0.0042
     23 C          12.1260    0.1890   24.3740 C.ar    1  UNL1       -0.0003
     24 C          13.0760    0.0900   23.3750 C.ar    1  UNL1       -0.0000
     25 C          12.9030   -0.8260   22.3540 C.ar    1  UNL1       -0.0003
     26 C          11.7600   -1.6130   22.3110 C.ar    1  UNL1       -0.0042
@<TRIPOS>BOND
     1     2     1    2
     2     3     2   am
     3     4     3    1
     4     5     4    1
     5     6     5   ar
     6     7     5   ar
     7     8     7   ar
     8     9     8   ar
     9     9     6   ar
    10    10     9    1
    11    11     2   am
    12    12    11    1
    13    13    12    1
    14    14    13   ar
    15    15    14   ar
    16    16    15   ar
    17    17    16   ar
    18    18    17   ar
    19    18    13   ar
    20    19    11    1
    21    20    19    1
    22    21    20    1
    23    22    21   ar
    24    23    22   ar
    25    24    23   ar
    26    25    24   ar
    27    26    21   ar
    28    26    25   ar
