@<TRIPOS>MOLECULE
*****
 25 28 0 0 0
SMALL
GASTEIGER

@<TRIPOS>ATOM
      1 O           9.2200    1.5100   21.2970 O.2     1  UNL1       -0.2726
      2 C           8.8870    0.4220   21.7600 C.2     1  UNL1        0.2495
      3 C           9.5390   -0.1420   23.0210 C.3     1  UNL1        0.1072
      4 C          11.0480   -0.1110   22.8900 C.ar    1  UNL1        0.0212
      5 C          11.7240   -0.9810   22.0300 C.ar    1  UNL1        0.0106
      6 C          13.0930   -0.8760   21.8860 C.ar    1  UNL1        0.0576
      7 CL         13.8990   -1.8800   20.7110 Cl      1  UNL1       -0.0823
      8 C          13.8240    0.0520   22.5920 C.ar    1  UNL1        0.0145
      9 C          13.1720    0.9060   23.4610 C.ar    1  UNL1        0.0374
     10 C          11.7990    0.8230   23.6050 C.ar    1  UNL1        0.1350
     11 O          11.2350    1.7110   24.4910 O.3     1  UNL1       -0.4757
     12 C           9.8150    1.9010   24.4260 C.3     1  UNL1        0.2061
     13 C           9.0810    0.5820   24.3110 C.3     1  UNL1        0.0566
     14 C           7.5720    0.8040   24.3390 C.3     1  UNL1        0.0047
     15 N           7.9440   -0.3660   21.2070 N.am    1  UNL1       -0.1774
     16 C           7.0850   -0.0500   20.1410 C.ar    1  UNL1        0.0925
     17 C           5.8190    0.5480   20.4400 C.ar    1  UNL1        0.0184
     18 C           5.2970    0.6760   21.7530 C.ar    1  UNL1        0.0014
     19 C           4.1080    1.3120   21.9770 C.ar    1  UNL1        0.0000
     20 C           3.3870    1.8550   20.9220 C.ar    1  UNL1        0.0001
     21 C           3.8430    1.7490   19.6390 C.ar    1  UNL1        0.0016
     22 C           5.0610    1.0810   19.3610 C.ar    1  UNL1        0.0204
     23 C           5.5900    0.9420   18.0550 C.ar    1  UNL1        0.0989
     24 N           6.7530    0.3630   17.7760 N.ar    1  UNL1       -0.2410
     25 C           7.4680   -0.1150   18.8020 C.ar    1  UNL1        0.1154
@<TRIPOS>BOND
     1     2     1    2
     2     3     2    1
     3     4     3    1
     4     5     4   ar
     5     6     5   ar
     6     7     6    1
     7     8     6   ar
     8     9     8   ar
     9    10     9   ar
    10    10     4   ar
    11    11    10    1
    12    12    11    1
    13    13    12    1
    14    13     3    1
    15    13    14    1
    16    15     2   am
    17    16    15    1
    18    17    16   ar
    19    18    17   ar
    20    19    18   ar
    21    20    19   ar
    22    21    20   ar
    23    22    21   ar
    24    22    17   ar
    25    23    22   ar
    26    24    23   ar
    27    25    24   ar
    28    25    16   ar
