@<TRIPOS>MOLECULE
*****
 14 15 0 0 0
SMALL
GASTEIGER

@<TRIPOS>ATOM
      1 C           9.4450   -5.4560   26.2700 C.3     1  UNL1        0.0614
      2 C           9.2070   -4.0760   25.6400 C.ar    1  UNL1        0.1113
      3 C           9.0750   -2.0990   24.1530 C.ar    1  UNL1        0.1271
      4 C           9.1440   -1.0920   22.9880 C.3     1  UNL1        0.1277
      5 C          10.6120    0.2730   23.8080 C.3     1  UNL1        0.0775
      6 C          11.9340    1.1730   23.3870 C.3     1  UNL1        0.0454
      7 C          12.9590    0.4200   22.9140 C.2     1  UNL1        0.0019
      8 C          12.6330   -0.8470   22.1290 C.2     1  UNL1        0.1296
      9 C          11.4050   -1.5010   22.4190 C.3     1  UNL1        0.1295
     10 F          13.6190   -1.5690   21.5760 F       1  UNL1       -0.2077
     11 N           8.6430   -3.0010   26.2950 N.ar    1  UNL1       -0.1456
     12 N           8.5570   -1.8210   25.4060 N.ar    1  UNL1       -0.1442
     13 N          10.2680   -0.5240   22.8710 N.3     1  UNL1       -0.2611
     14 S           9.5940   -3.6570   24.0980 S.2     1  UNL1       -0.0527
@<TRIPOS>BOND
     1     2     1    1
     2     4     3    1
     3     6     5    1
     4     7     6    1
     5     8     7    2
     6     9     8    1
     7    10     8    1
     8    11     2   ar
     9    12    11   ar
    10    12     3   ar
    11    13     5    1
    12    13     4    1
    13    13     9    1
    14    14     3   ar
    15    14     2   ar
