@<TRIPOS>MOLECULE
*****
 25 27 0 0 0
SMALL
GASTEIGER

@<TRIPOS>ATOM
      1 O           6.5690    1.0670   16.7780 O.2     1  UNL1       -0.2652
      2 C           5.9810    0.8060   17.8330 C.ar    1  UNL1        0.2794
      3 C           6.3670   -0.2410   18.7150 C.ar    1  UNL1        0.0671
      4 N           4.9470    1.5990   18.2610 N.ar    1  UNL1       -0.2079
      5 C           4.3110    1.4660   19.4940 C.ar    1  UNL1        0.0847
      6 C           4.7420    0.4710   20.3910 C.ar    1  UNL1        0.0223
      7 C           4.1310    0.3680   21.6440 C.ar    1  UNL1        0.0016
      8 C           3.0730    1.2020   21.9670 C.ar    1  UNL1        0.0001
      9 C           2.6230    2.1420   21.0630 C.ar    1  UNL1        0.0015
     10 C           3.2440    2.2910   19.8340 C.ar    1  UNL1        0.0192
     11 C           5.7970   -0.4250   19.9330 C.ar    1  UNL1        0.0613
     12 C           6.2190   -1.5810   20.7470 C.2     1  UNL1        0.2651
     13 O           5.4900   -2.5620   20.8840 O.2     1  UNL1       -0.2684
     14 N           7.4080   -1.4760   21.3370 N.am    1  UNL1       -0.1977
     15 C           7.9300   -2.5140   22.2110 C.3     1  UNL1        0.1626
     16 C           9.4270   -2.4670   22.2740 C.3     1  UNL1        0.2289
     17 O           9.8010   -1.1220   22.6110 O.3     1  UNL1       -0.4705
     18 C          11.1330   -0.7820   22.6370 C.ar    1  UNL1        0.1723
     19 C          11.4200    0.5060   23.1350 C.ar    1  UNL1        0.1724
     20 O          10.3290    1.2360   23.5230 O.3     1  UNL1       -0.4684
     21 C          10.5480    2.5650   24.0040 C.3     1  UNL1        0.2526
     22 C          12.1660   -1.5890   22.1740 C.ar    1  UNL1        0.0400
     23 C          13.4650   -1.1060   22.1760 C.ar    1  UNL1        0.0033
     24 C          13.7470    0.1570   22.6630 C.ar    1  UNL1        0.0033
     25 C          12.7320    0.9630   23.1580 C.ar    1  UNL1        0.0400
@<TRIPOS>BOND
     1     2     1    2
     2     3     2   ar
     3     4     2   ar
     4     5     4   ar
     5     6     5   ar
     6     7     6   ar
     7     8     7   ar
     8     9     8   ar
     9    10     9   ar
    10    10     5   ar
    11    11     6   ar
    12    11     3   ar
    13    12    11    1
    14    13    12    2
    15    14    12   am
    16    15    14    1
    17    16    15    1
    18    17    16    1
    19    18    17    1
    20    19    18   ar
    21    20    19    1
    22    21    20    1
    23    22    18   ar
    24    23    22   ar
    25    24    23   ar
    26    25    24   ar
    27    25    19   ar
