@<TRIPOS>MOLECULE
*****
 27 30 0 0 0
SMALL
GASTEIGER

@<TRIPOS>ATOM
      1 O           9.3400    1.1460   21.1680 O.2     1  UNL1       -0.2701
      2 C           8.7480    0.2430   21.7440 C.2     1  UNL1        0.2742
      3 C           9.3140   -0.3680   23.0750 C.3     1  UNL1        0.1878
      4 C          10.8310   -0.3660   23.1040 C.ar    1  UNL1        0.0489
      5 C          11.5770   -0.9410   22.0770 C.ar    1  UNL1        0.0312
      6 C          12.9500   -0.9510   22.1690 C.ar    1  UNL1        0.1424
      7 F          13.6590   -1.4530   21.1220 F       1  UNL1       -0.2041
      8 C          13.6500   -0.4400   23.2300 C.ar    1  UNL1        0.0624
      9 C          12.9140    0.1250   24.2350 C.ar    1  UNL1        0.1758
     10 F          13.5530    0.6540   25.3050 F       1  UNL1       -0.2009
     11 C          11.5300    0.1820   24.2050 C.ar    1  UNL1        0.1645
     12 O          10.9120    0.7960   25.2650 O.3     1  UNL1       -0.4733
     13 C           9.5350    0.4320   25.4530 C.3     1  UNL1        0.2088
     14 C           8.7460    0.5530   24.1670 C.3     1  UNL1        0.0879
     15 O           8.7210   -1.6420   23.3730 O.3     1  UNL1       -0.3428
     16 C           9.0630   -2.7470   22.5280 C.3     1  UNL1        0.1750
     17 N           7.5510   -0.2350   21.3340 N.am    1  UNL1       -0.1754
     18 C           6.8190    0.1350   20.1800 C.ar    1  UNL1        0.0925
     19 C           5.6010    0.8630   20.3490 C.ar    1  UNL1        0.0184
     20 C           5.0240    1.1500   21.6130 C.ar    1  UNL1        0.0014
     21 C           3.8600    1.8550   21.7100 C.ar    1  UNL1        0.0000
     22 C           3.2110    2.3120   20.5680 C.ar    1  UNL1        0.0001
     23 C           3.7190    2.0530   19.3280 C.ar    1  UNL1        0.0016
     24 C           4.9210    1.3160   19.1820 C.ar    1  UNL1        0.0204
     25 C           5.4830    0.9910   17.9230 C.ar    1  UNL1        0.0989
     26 N           6.5990    0.2940   17.7660 N.ar    1  UNL1       -0.2410
     27 C           7.2360   -0.1140   18.8710 C.ar    1  UNL1        0.1154
@<TRIPOS>BOND
     1     2     1    2
     2     3     2    1
     3     4     3    1
     4     5     4   ar
     5     6     5   ar
     6     7     6    1
     7     8     6   ar
     8     9     8   ar
     9    10     9    1
    10    11     4   ar
    11    11     9   ar
    12    12    11    1
    13    13    12    1
    14    14    13    1
    15    14     3    1
    16     3    15    1
    17    16    15    1
    18    17     2   am
    19    18    17    1
    20    19    18   ar
    21    20    19   ar
    22    21    20   ar
    23    22    21   ar
    24    23    22   ar
    25    24    23   ar
    26    24    19   ar
    27    25    24   ar
    28    26    25   ar
    29    27    26   ar
    30    27    18   ar
