@<TRIPOS>MOLECULE
*****
 14 14 0 0 0
SMALL
GASTEIGER

@<TRIPOS>ATOM
      1 O           8.0520   -0.7970   20.2530 O.2     1  UNL1       -0.2733
      2 C           8.3500   -1.9850   20.2920 C.2     1  UNL1        0.2421
      3 C           8.1500   -2.8950   19.1080 C.3     1  UNL1        0.0964
      4 N           8.8770   -2.5490   21.3900 N.am    1  UNL1       -0.2027
      5 C           9.0550   -1.7950   22.6340 C.3     1  UNL1        0.1176
      6 C           8.6570   -2.6760   23.8120 C.3     1  UNL1        0.0283
      7 C          10.4730   -1.2740   22.7840 C.ar    1  UNL1        0.0005
      8 C          10.7540   -0.2260   23.6560 C.ar    1  UNL1        0.0271
      9 C          12.0290    0.2770   23.6970 C.ar    1  UNL1        0.1407
     10 F          12.3090    1.2440   24.6090 F       1  UNL1       -0.2042
     11 C          13.0470   -0.1840   22.9030 C.ar    1  UNL1        0.0410
     12 C          12.7580   -1.2340   22.0580 C.ar    1  UNL1        0.0596
     13 CL         14.0050   -1.8540   21.0150 Cl      1  UNL1       -0.0822
     14 C          11.4980   -1.7950   22.0010 C.ar    1  UNL1        0.0089
@<TRIPOS>BOND
     1     2     1    2
     2     3     2    1
     3     4     2   am
     4     5     4    1
     5     5     6    1
     6     7     5    1
     7     8     7   ar
     8     9     8   ar
     9    10     9    1
    10    11     9   ar
    11    12    11   ar
    12    13    12    1
    13    14     7   ar
    14    14    12   ar
