@<TRIPOS>MOLECULE
*****
 23 25 0 0 0
SMALL
GASTEIGER

@<TRIPOS>ATOM
      1 CL         13.8450   -1.7630   21.5830 Cl      1  UNL1       -0.0814
      2 C          12.5110   -0.9370   22.3240 C.ar    1  UNL1        0.0679
      3 C          12.7240    0.0970   23.2250 C.ar    1  UNL1        0.0682
      4 CL         14.3200    0.6900   23.5470 Cl      1  UNL1       -0.0814
      5 C          11.6450    0.7120   23.8350 C.ar    1  UNL1        0.0119
      6 C          10.3610    0.3070   23.5270 C.ar    1  UNL1       -0.0029
      7 C          11.2230   -1.3290   22.0100 C.ar    1  UNL1        0.0084
      8 C          10.1330   -0.7030   22.6040 C.ar    1  UNL1       -0.0129
      9 C           8.7180   -1.1410   22.2510 C.3     1  UNL1        0.1008
     10 C           7.8470   -1.3350   23.4950 C.3     1  UNL1        0.0144
     11 C           8.1150   -0.1710   21.2310 C.2     1  UNL1        0.2492
     12 O           8.5730    0.9600   21.0600 O.2     1  UNL1       -0.2726
     13 N           7.0750   -0.6570   20.5230 N.am    1  UNL1       -0.1774
     14 C           6.3330   -0.0020   19.5270 C.ar    1  UNL1        0.0925
     15 C           5.2900    0.8920   19.9180 C.ar    1  UNL1        0.0184
     16 C           4.9200    1.1340   21.2680 C.ar    1  UNL1        0.0014
     17 C           3.9340    2.0310   21.5770 C.ar    1  UNL1        0.0000
     18 C           3.2690    2.7250   20.5750 C.ar    1  UNL1        0.0001
     19 C           3.5870    2.5240   19.2620 C.ar    1  UNL1        0.0016
     20 C           4.6060    1.6060   18.8980 C.ar    1  UNL1        0.0204
     21 C           5.0090    1.3820   17.5590 C.ar    1  UNL1        0.0989
     22 N           5.9830    0.5580   17.2000 N.ar    1  UNL1       -0.2410
     23 C           6.6160   -0.1120   18.1670 C.ar    1  UNL1        0.1154
@<TRIPOS>BOND
     1     2     1    1
     2     3     2   ar
     3     4     3    1
     4     5     3   ar
     5     6     5   ar
     6     7     2   ar
     7     8     6   ar
     8     8     7   ar
     9     9     8    1
    10     9    10    1
    11    11     9    1
    12    12    11    2
    13    13    11   am
    14    14    13    1
    15    15    14   ar
    16    16    15   ar
    17    17    16   ar
    18    18    17   ar
    19    19    18   ar
    20    20    19   ar
    21    20    15   ar
    22    21    20   ar
    23    22    21   ar
    24    23    22   ar
    25    23    14   ar
