
     RDKit          3D

 23 25  0  0  0  0  0  0  0  0999 V2000
   13.8450   -1.7630   21.5830 Cl  0  0  0  0  0  0  0  0  0  0  0  0
   12.5110   -0.9370   22.3240 C   0  0  0  0  0  0  0  0  0  0  0  0
   12.7240    0.0970   23.2250 C   0  0  0  0  0  0  0  0  0  0  0  0
   14.3200    0.6900   23.5470 Cl  0  0  0  0  0  0  0  0  0  0  0  0
   11.6450    0.7120   23.8350 C   0  0  0  0  0  0  0  0  0  0  0  0
   10.3610    0.3070   23.5270 C   0  0  0  0  0  0  0  0  0  0  0  0
   11.2230   -1.3290   22.0100 C   0  0  0  0  0  0  0  0  0  0  0  0
   10.1330   -0.7030   22.6040 C   0  0  0  0  0  0  0  0  0  0  0  0
    8.7180   -1.1410   22.2510 C   0  0  1  0  0  0  0  0  0  0  0  0
    7.8470   -1.3350   23.4950 C   0  0  0  0  0  0  0  0  0  0  0  0
    8.1150   -0.1710   21.2310 C   0  0  0  0  0  0  0  0  0  0  0  0
    8.5730    0.9600   21.0600 O   0  0  0  0  0  0  0  0  0  0  0  0
    7.0750   -0.6570   20.5230 N   0  0  0  0  0  0  0  0  0  0  0  0
    6.3330   -0.0020   19.5270 C   0  0  0  0  0  0  0  0  0  0  0  0
    5.2900    0.8920   19.9180 C   0  0  0  0  0  0  0  0  0  0  0  0
    4.9200    1.1340   21.2680 C   0  0  0  0  0  0  0  0  0  0  0  0
    3.9340    2.0310   21.5770 C   0  0  0  0  0  0  0  0  0  0  0  0
    3.2690    2.7250   20.5750 C   0  0  0  0  0  0  0  0  0  0  0  0
    3.5870    2.5240   19.2620 C   0  0  0  0  0  0  0  0  0  0  0  0
    4.6060    1.6060   18.8980 C   0  0  0  0  0  0  0  0  0  0  0  0
    5.0090    1.3820   17.5590 C   0  0  0  0  0  0  0  0  0  0  0  0
    5.9830    0.5580   17.2000 N   0  0  0  0  0  0  0  0  0  0  0  0
    6.6160   -0.1120   18.1670 C   0  0  0  0  0  0  0  0  0  0  0  0
  2  1  1  0
  3  2  2  0
  4  3  1  0
  5  3  1  0
  6  5  2  0
  7  2  1  0
  8  6  1  0
  8  7  2  0
  9  8  1  0
  9 10  1  1
 11  9  1  0
 12 11  2  0
 13 11  1  0
 14 13  1  0
 15 14  1  0
 16 15  2  0
 17 16  1  0
 18 17  2  0
 19 18  1  0
 20 19  2  0
 20 15  1  0
 21 20  1  0
 22 21  2  0
 23 22  1  0
 23 14  2  0
M  END
> <BADATOMS>
1461;1460;366;365;1462;1459
> <BADCOMMENTS>
Weak Density;Weak Density;Weak Density;Weak Density;Weak Density;Weak Density