@<TRIPOS>MOLECULE
*****
 23 25 0 0 0
SMALL
GASTEIGER

@<TRIPOS>ATOM
      1 CL         13.8310   -1.7960   21.8070 Cl      1  UNL1       -0.0814
      2 C          12.4970   -0.9870   22.5590 C.ar    1  UNL1        0.0680
      3 C          12.7150    0.0320   23.4720 C.ar    1  UNL1        0.0682
      4 CL         14.3040    0.6540   23.7410 Cl      1  UNL1       -0.0814
      5 C          11.6450    0.6580   24.0800 C.ar    1  UNL1        0.0120
      6 C          10.3590    0.2960   23.7410 C.ar    1  UNL1       -0.0004
      7 C          11.2040   -1.3470   22.2200 C.ar    1  UNL1        0.0109
      8 C          10.1220   -0.6880   22.7950 C.ar    1  UNL1        0.0175
      9 C           8.7180   -0.9420   22.3070 C.3     1  UNL1        0.2517
     10 O           8.2510   -2.2840   22.3670 O.3     1  UNL1       -0.2083
     11 C           8.0630   -0.0830   21.2300 C.2     1  UNL1        0.2804
     12 O           8.4820    1.0560   21.0250 O.2     1  UNL1       -0.2699
     13 N           7.0560   -0.6400   20.5300 N.am    1  UNL1       -0.1752
     14 C           6.3120   -0.0400   19.5030 C.ar    1  UNL1        0.0925
     15 C           5.2590    0.8590   19.8540 C.ar    1  UNL1        0.0184
     16 C           4.8370    1.1010   21.1890 C.ar    1  UNL1        0.0014
     17 C           3.8550    2.0130   21.4610 C.ar    1  UNL1        0.0000
     18 C           3.2390    2.7160   20.4350 C.ar    1  UNL1        0.0001
     19 C           3.6050    2.5120   19.1350 C.ar    1  UNL1        0.0016
     20 C           4.6260    1.5840   18.8110 C.ar    1  UNL1        0.0204
     21 C           5.0780    1.3570   17.4890 C.ar    1  UNL1        0.0989
     22 N           6.0450    0.5130   17.1630 N.ar    1  UNL1       -0.2410
     23 C           6.6380   -0.1610   18.1540 C.ar    1  UNL1        0.1154
@<TRIPOS>BOND
     1     2     1    1
     2     3     2   ar
     3     4     3    1
     4     5     3   ar
     5     6     5   ar
     6     7     2   ar
     7     8     6   ar
     8     8     7   ar
     9     9     8    1
    10     9    10    1
    11    11     9    1
    12    12    11    2
    13    13    11   am
    14    14    13    1
    15    15    14   ar
    16    16    15   ar
    17    17    16   ar
    18    18    17   ar
    19    19    18   ar
    20    20    19   ar
    21    20    15   ar
    22    21    20   ar
    23    22    21   ar
    24    23    22   ar
    25    23    14   ar
