@<TRIPOS>MOLECULE
*****
 16 17 0 0 0
SMALL
GASTEIGER

@<TRIPOS>ATOM
      1 N           6.8060   -3.7380   21.8200 N.am    1  UNL1       -0.1792
      2 C           8.3970   -3.3620   20.1110 C.3     1  UNL1        0.0968
      3 O           6.1720   -4.1180   19.6610 O.2     1  UNL1       -0.2730
      4 C           7.0010   -3.7840   20.4910 C.2     1  UNL1        0.2461
      5 C           3.4450   -2.0860   27.3000 C.3     1  UNL1        0.0874
      6 C           4.3810   -2.5340   26.2110 C.2     1  UNL1        0.2294
      7 C           5.8530   -4.4150   22.6120 C.ar    1  UNL1        0.0746
      8 C           5.5050   -5.7500   22.4130 C.ar    1  UNL1        0.0167
      9 C           4.5730   -6.3370   23.2500 C.ar    1  UNL1        0.0026
     10 C           3.9890   -5.6200   24.2800 C.ar    1  UNL1        0.0150
     11 C           4.3480   -4.2930   24.4720 C.ar    1  UNL1        0.0551
     12 C           5.2800   -3.6840   23.6410 C.ar    1  UNL1        0.0315
     13 C           2.3700   -3.7440   25.9490 C.3     1  UNL1        0.0987
     14 C           2.0770   -2.5500   26.8320 C.3     1  UNL1        0.0315
     15 N           3.7570   -3.5340   25.5180 N.am    1  UNL1       -0.2586
     16 O           5.4860   -2.0890   25.9630 O.2     1  UNL1       -0.2745
@<TRIPOS>BOND
     1     4     3    2
     2     4     2    1
     3     4     1   am
     4     6     5    1
     5     7     1    1
     6     8     7   ar
     7     9     8   ar
     8    10     9   ar
     9    11    10   ar
    10    12    11   ar
    11    12     7   ar
    12    14    13    1
    13    14     5    1
    14    15    13    1
    15    15    11    1
    16    15     6   am
    17    16     6    2
