@<TRIPOS>MOLECULE
*****
 26 27 0 0 0
SMALL
GASTEIGER

@<TRIPOS>ATOM
      1 O           9.0370    1.2760   21.0830 O.2     1  UNL1       -0.2712
      2 C           8.0790    1.0500   21.8190 C.2     1  UNL1        0.2642
      3 N           7.8460    1.7020   22.9520 N.am    1  UNL1       -0.2018
      4 C           8.7810    2.6770   23.4820 C.3     1  UNL1        0.1386
      5 C           7.0270   -0.0140   21.4670 C.3     1  UNL1        0.1817
      6 C           6.3830    0.2500   20.1160 C.ar    1  UNL1        0.0241
      7 C           5.2530    1.0480   20.0170 C.ar    1  UNL1        0.0010
      8 C           4.8210    1.4890   18.7820 C.ar    1  UNL1        0.0204
      9 C           5.5420    1.1100   17.6640 C.ar    1  UNL1        0.0989
     10 N           6.6160    0.3170   17.7170 N.ar    1  UNL1       -0.2426
     11 C           7.0020   -0.1090   18.9250 C.ar    1  UNL1        0.0967
     12 N           7.5070   -1.3840   21.7830 N.am    1  UNL1       -0.2480
     13 C           6.6980   -2.4420   21.4780 C.2     1  UNL1        0.2299
     14 O           5.5320   -2.2860   21.1650 O.2     1  UNL1       -0.2745
     15 C           7.2910   -3.8250   21.4960 C.3     1  UNL1        0.0857
     16 C           7.1550   -4.4840   20.1450 C.3     1  UNL1        0.0101
     17 C           8.7640   -1.5640   22.4470 C.ar    1  UNL1        0.0545
     18 C           8.8220   -1.6140   23.8380 C.ar    1  UNL1        0.0146
     19 C          10.0430   -1.7440   24.4790 C.ar    1  UNL1       -0.0030
     20 C          11.2310   -1.8200   23.7560 C.ar    1  UNL1       -0.0227
     21 C          12.5780   -1.8820   24.4890 C.3     1  UNL1        0.0189
     22 C          12.6180   -3.0570   25.4850 C.3     1  UNL1        0.0044
     23 C          13.7570   -2.0440   23.5280 C.3     1  UNL1        0.0044
     24 C          12.7870   -0.5760   25.2510 C.3     1  UNL1        0.0044
     25 C          11.1580   -1.7840   22.3650 C.ar    1  UNL1       -0.0030
     26 C           9.9440   -1.6590   21.7140 C.ar    1  UNL1        0.0146
@<TRIPOS>BOND
     1     2     1    2
     2     3     2   am
     3     4     3    1
     4     5     2    1
     5     6     5    1
     6     7     6   ar
     7     8     7   ar
     8     9     8   ar
     9    10     9   ar
    10    11    10   ar
    11    11     6   ar
    12    12     5    1
    13    13    12   am
    14    14    13    2
    15    15    13    1
    16    16    15    1
    17    17    12    1
    18    18    17   ar
    19    19    18   ar
    20    20    19   ar
    21    21    20    1
    22    21    22    1
    23    23    21    1
    24    24    21    1
    25    25    20   ar
    26    26    17   ar
    27    26    25   ar
