@<TRIPOS>MOLECULE
*****
 17 18 0 0 0
SMALL
GASTEIGER

@<TRIPOS>ATOM
      1 C          26.0410    4.7670   13.4310 C.2     1  UNL1        0.2842
      2 C          25.6140    4.3990   12.0050 C.ar    1  UNL1        0.0567
      3 C          25.3620    5.3710   11.0430 C.ar    1  UNL1        0.0060
      4 C          24.9940    5.0110    9.7610 C.ar    1  UNL1        0.0167
      5 C          24.8730    3.6790    9.4310 C.ar    1  UNL1        0.0734
      6 C          23.2480    2.6370    7.8060 C.2     1  UNL1        0.2727
      7 C          22.9370    2.2770    6.3390 C.3     1  UNL1        0.1929
      8 C          23.3400    1.0950    6.0950 C.3     1  UNL1        0.0417
      9 C          23.9950    1.1510    4.7290 C.3     1  UNL1        0.0351
     10 C          24.6750    2.5070    4.8200 C.3     1  UNL1        0.1428
     11 C          25.1320    2.7020   10.3740 C.ar    1  UNL1        0.0167
     12 C          25.5010    3.0600   11.6610 C.ar    1  UNL1        0.0060
     13 N          26.0700    6.1400   13.8990 N.am    1  UNL1       -0.0837
     14 N          24.4960    3.3160    8.0880 N.am    1  UNL1       -0.1772
     15 O          26.3770    3.9080   14.1830 O.2     1  UNL1       -0.2667
     16 O          22.4980    2.3610    8.6850 O.2     1  UNL1       -0.2704
     17 O          23.7760    3.2410    5.3450 O.3     1  UNL1       -0.3470
@<TRIPOS>BOND
     1     2     1    1
     2     3     2   ar
     3     4     3   ar
     4     5     4   ar
     5     7     6    1
     6     8     7    1
     7     9     8    1
     8    10     9    1
     9    11     5   ar
    10    12    11   ar
    11    12     2   ar
    12    13     1   am
    13    14     6   am
    14    14     5    1
    15    15     1    2
    16    16     6    2
    17    17    10    1
    18    17     7    1
