@<TRIPOS>MOLECULE
*****
 23 25 0 0 0
SMALL
GASTEIGER

@<TRIPOS>ATOM
      1 N           6.4200    0.6670   17.3500 N.ar    1  UNL1       -0.2410
      2 N           9.3840   -0.3800   23.3930 N.am    1  UNL1       -0.2438
      3 C           5.2870    0.9060   19.9060 C.ar    1  UNL1       -0.0034
      4 C          12.8670    0.3670   24.2650 C.ar    1  UNL1        0.0391
      5 O           7.5080    0.7010   24.1790 O.2     1  UNL1       -0.2705
      6 C           8.7250    0.5420   24.1810 C.2     1  UNL1        0.2744
      7 C           4.7740    1.5990   18.8170 C.ar    1  UNL1        0.0177
      8 C           8.1430   -0.2780   21.3150 C.2     1  UNL1        0.2662
      9 C           6.3760    0.0520   19.6700 C.ar    1  UNL1        0.0886
     10 C           6.9020   -0.0340   18.3820 C.ar    1  UNL1        0.1151
     11 C          11.4920    0.2670   24.3200 C.ar    1  UNL1        0.1529
     12 C          12.8590   -1.0600   22.3620 C.ar    1  UNL1        0.0591
     13 C           9.5660    1.4090   25.0870 C.3     1  UNL1        0.2900
     14 C          13.5520   -0.2810   23.2580 C.ar    1  UNL1        0.0146
     15 C          11.4830   -1.1720   22.3960 C.ar    1  UNL1        0.0294
     16 C           4.7420    1.1430   21.2920 C.3     1  UNL1        0.0325
     17 N           6.9760   -0.6430   20.7430 N.am    1  UNL1       -0.1765
     18 O           8.7930    0.7110   20.9920 O.2     1  UNL1       -0.2711
     19 O          10.8630    0.8720   25.3770 O.3     1  UNL1       -0.4643
     20 C           8.5830   -1.1660   22.4630 C.3     1  UNL1        0.1854
     21 C           5.3690    1.4660   17.5810 C.ar    1  UNL1        0.0987
     22 C          10.7870   -0.4610   23.3700 C.ar    1  UNL1        0.0894
     23 CL         13.7530   -1.9660   21.1720 Cl      1  UNL1       -0.0822
@<TRIPOS>BOND
     1     6     5    2
     2     6     2   am
     3     7     3   ar
     4     9     3   ar
     5    10     9   ar
     6    10     1   ar
     7    11     4   ar
     8    13     6    1
     9    14    12   ar
    10    14     4   ar
    11    15    12   ar
    12    16     3    1
    13    17     9    1
    14    17     8   am
    15    18     8    2
    16    19    13    1
    17    19    11    1
    18    20     8    1
    19    20     2    1
    20    21     7   ar
    21    21     1   ar
    22    22     2    1
    23    22    15   ar
    24    22    11   ar
    25    23    12    1
