@<TRIPOS>MOLECULE
*****
 15 16 0 0 0
SMALL
GASTEIGER

@<TRIPOS>ATOM
      1 F          13.5930   -0.5450   21.3480 F       1  UNL1       -0.2343
      2 C          12.7190   -1.3280   22.1100 C.3     1  UNL1        0.1936
      3 C          11.5210   -0.4910   22.4710 C.3     1  UNL1        0.0446
      4 C          10.5860   -0.8580   23.5750 C.3     1  UNL1        0.0125
      5 C          10.1710   -1.0940   22.1440 C.3     1  UNL1        0.0814
      6 C           9.2420   -0.1100   21.4590 C.2     1  UNL1        0.2452
      7 O           9.6020    1.0320   21.1920 O.2     1  UNL1       -0.2730
      8 N           8.0390   -0.6230   21.1150 N.am    1  UNL1       -0.1780
      9 C           7.1310   -0.0600   20.1870 C.ar    1  UNL1        0.0885
     10 C           5.9840    0.6140   20.6460 C.ar    1  UNL1       -0.0034
     11 C           5.6710    0.7500   22.1140 C.3     1  UNL1        0.0325
     12 C           7.3490   -0.1440   18.8110 C.ar    1  UNL1        0.1151
     13 N           6.5250    0.3820   17.9000 N.ar    1  UNL1       -0.2410
     14 C           5.4400    1.0200   18.3490 C.ar    1  UNL1        0.0987
     15 C           5.1350    1.1570   19.6890 C.ar    1  UNL1        0.0177
@<TRIPOS>BOND
     1     2     1    1
     2     3     2    1
     3     4     3    1
     4     5     4    1
     5     5     3    1
     6     5     6    1
     7     7     6    2
     8     8     6   am
     9     9     8    1
    10    10     9   ar
    11    11    10    1
    12    12     9   ar
    13    13    12   ar
    14    14    13   ar
    15    15    14   ar
    16    15    10   ar
