@<TRIPOS>MOLECULE
*****
 25 27 0 0 0
SMALL
GASTEIGER

@<TRIPOS>ATOM
      1 N           6.6490    0.5860   17.5980 N.ar    1  UNL1       -0.2410
      2 N           9.2760   -0.6990   22.4900 N.am    1  UNL1       -0.2402
      3 N           7.4930   -0.5740   20.9800 N.am    1  UNL1       -0.1604
      4 C           7.2240   -3.8410   24.9300 C.3     1  UNL1        0.1047
      5 C          13.3270    0.2030   23.0790 C.ar    1  UNL1        0.0115
      6 O           9.2330    0.8870   20.8710 O.2     1  UNL1       -0.2501
      7 C           9.5070   -4.5680   25.3120 C.3     1  UNL1        0.1047
      8 C          12.3560    0.8310   23.8470 C.ar    1  UNL1        0.0021
      9 C           5.5260    1.2690   17.8570 C.ar    1  UNL1        0.0990
     10 C           8.4720   -1.4950   23.4250 C.3     1  UNL1        0.1171
     11 C          11.6130   -1.1290   22.0220 C.ar    1  UNL1        0.0263
     12 C          10.6470   -0.4910   22.7940 C.ar    1  UNL1        0.0562
     13 C           6.8440   -4.4420   26.2650 C.3     1  UNL1        0.1595
     14 C           6.7580    0.0130   19.9320 C.ar    1  UNL1        0.0941
     15 C           7.2410   -0.0320   18.6230 C.ar    1  UNL1        0.1154
     16 C           9.0680   -5.1400   26.6360 C.3     1  UNL1        0.1595
     17 C           8.6790   -0.0690   21.3920 C.2     1  UNL1        0.3313
     18 C           5.5970    0.7360   20.1720 C.ar    1  UNL1        0.0198
     19 C          12.9360   -0.7770   22.1850 C.ar    1  UNL1        0.0589
     20 N           8.6450   -3.4300   24.9420 N.3     1  UNL1       -0.2670
     21 O           7.6940   -5.5480   26.6040 O.3     1  UNL1       -0.3508
     22 C           9.0510   -2.8660   23.6480 C.3     1  UNL1        0.0944
     23 C          11.0200    0.4820   23.7210 C.ar    1  UNL1        0.0150
     24 C           4.9700    1.3790   19.1220 C.ar    1  UNL1        0.0220
     25 CL         14.1450   -1.6320   21.2730 Cl      1  UNL1       -0.0822
@<TRIPOS>BOND
     1     8     5   ar
     2     9     1   ar
     3    10     2    1
     4    12     2    1
     5    12    11   ar
     6    13     4    1
     7    14     3    1
     8    15    14   ar
     9    15     1   ar
    10    16     7    1
    11    17     6    2
    12    17     3   am
    13    17     2   am
    14    18    14   ar
    15    19    11   ar
    16    19     5   ar
    17    20     7    1
    18    20     4    1
    19    21    16    1
    20    21    13    1
    21    22    20    1
    22    22    10    1
    23    23    12   ar
    24    23     8   ar
    25    24    18   ar
    26    24     9   ar
    27    25    19    1
