
     RDKit          3D

 29 32  0  0  0  0  0  0  0  0999 V2000
   14.0220   -1.6230   21.5020 Cl  0  0  0  0  0  0  0  0  0  0  0  0
   12.7860   -0.8670   22.4690 C   0  0  0  0  0  0  0  0  0  0  0  0
   11.4580   -1.1390   22.1970 C   0  0  0  0  0  0  0  0  0  0  0  0
   13.1540   -0.0010   23.4740 C   0  0  0  0  0  0  0  0  0  0  0  0
   12.1680    0.6080   24.2280 C   0  0  0  0  0  0  0  0  0  0  0  0
   10.8170    0.3660   23.9800 C   0  0  0  0  0  0  0  0  0  0  0  0
    9.7680    1.0360   24.8370 C   0  0  0  0  0  0  0  0  0  0  0  0
    8.4410    1.0190   24.2040 N   0  0  0  0  0  0  0  0  0  0  0  0
    7.4100    1.7010   24.9850 C   0  0  0  0  0  0  0  0  0  0  0  0
    7.1510    3.1280   24.5280 C   0  0  0  0  0  0  0  0  0  0  0  0
    6.9530    4.0310   25.3380 O   0  0  0  0  0  0  0  0  0  0  0  0
    7.1460    3.3300   23.2140 N   0  0  0  0  0  0  0  0  0  0  0  0
    6.8200    4.6140   22.6230 C   0  0  0  0  0  0  0  0  0  0  0  0
   10.4580   -0.5110   22.9410 C   0  0  0  0  0  0  0  0  0  0  0  0
    8.9940   -0.7540   22.6130 C   0  0  1  0  0  0  0  0  0  0  0  0
    8.0990   -0.3440   23.7870 C   0  0  0  0  0  0  0  0  0  0  0  0
    8.5880    0.0790   21.3960 C   0  0  0  0  0  0  0  0  0  0  0  0
    8.7650    1.2920   21.3550 O   0  0  0  0  0  0  0  0  0  0  0  0
    7.8880   -0.6040   20.4620 N   0  0  0  0  0  0  0  0  0  0  0  0
    6.8520   -0.1990   19.5920 C   0  0  0  0  0  0  0  0  0  0  0  0
    5.8510    0.7310   20.0300 C   0  0  0  0  0  0  0  0  0  0  0  0
    5.4530    0.8770   21.3870 C   0  0  0  0  0  0  0  0  0  0  0  0
    4.3950    1.6710   21.7310 C   0  0  0  0  0  0  0  0  0  0  0  0
    3.6890    2.3680   20.7620 C   0  0  0  0  0  0  0  0  0  0  0  0
    4.0250    2.2590   19.4440 C   0  0  0  0  0  0  0  0  0  0  0  0
    5.0980    1.4250   19.0380 C   0  0  0  0  0  0  0  0  0  0  0  0
    5.3760    1.1410   17.6790 C   0  0  0  0  0  0  0  0  0  0  0  0
    6.2590    0.2430   17.2750 N   0  0  0  0  0  0  0  0  0  0  0  0
    6.9540   -0.4100   18.2170 C   0  0  0  0  0  0  0  0  0  0  0  0
  2  1  1  0
  3  2  2  0
  4  2  1  0
  5  4  2  0
  6  5  1  0
  7  6  1  0
  8  7  1  0
  9  8  1  0
 10  9  1  0
 11 10  2  0
 12 10  1  0
 13 12  1  0
 14  6  2  0
 14  3  1  0
 15 14  1  0
 16 15  1  0
 16  8  1  0
 15 17  1  6
 18 17  2  0
 19 17  1  0
 20 19  1  0
 21 20  1  0
 22 21  2  0
 23 22  1  0
 24 23  2  0
 25 24  1  0
 26 25  2  0
 26 21  1  0
 27 26  1  0
 28 27  2  0
 29 28  1  0
 29 20  2  0
M  END
> <BADATOMS>
4;3;8;10;9;11;12;27
> <BADCOMMENTS>
Weak Density;Weak Density;Weak Density;Weak Density;Weak Density;Weak Density;Weak Density;Weak Density