@<TRIPOS>MOLECULE
*****
 29 32 0 0 0
SMALL
GASTEIGER

@<TRIPOS>ATOM
      1 CL         14.0220   -1.6230   21.5020 Cl      1  UNL1       -0.0823
      2 C          12.7860   -0.8670   22.4690 C.ar    1  UNL1        0.0574
      3 C          11.4580   -1.1390   22.1970 C.ar    1  UNL1        0.0074
      4 C          13.1540   -0.0010   23.4740 C.ar    1  UNL1        0.0111
      5 C          12.1680    0.6080   24.2280 C.ar    1  UNL1       -0.0024
      6 C          10.8170    0.3660   23.9800 C.ar    1  UNL1       -0.0095
      7 C           9.7680    1.0360   24.8370 C.3     1  UNL1        0.0992
      8 N           8.4410    1.0190   24.2040 N.3     1  UNL1       -0.2604
      9 C           7.4100    1.7010   24.9850 C.3     1  UNL1        0.1605
     10 C           7.1510    3.1280   24.5280 C.2     1  UNL1        0.2578
     11 O           6.9530    4.0310   25.3380 O.2     1  UNL1       -0.2718
     12 N           7.1460    3.3300   23.2140 N.am    1  UNL1       -0.2024
     13 C           6.8200    4.6140   22.6230 C.3     1  UNL1        0.1385
     14 C          10.4580   -0.5110   22.9410 C.ar    1  UNL1       -0.0143
     15 C           8.9940   -0.7540   22.6130 C.3     1  UNL1        0.1164
     16 C           8.0990   -0.3440   23.7870 C.3     1  UNL1        0.0864
     17 C           8.5880    0.0790   21.3960 C.2     1  UNL1        0.2506
     18 O           8.7650    1.2920   21.3550 O.2     1  UNL1       -0.2726
     19 N           7.8880   -0.6040   20.4620 N.am    1  UNL1       -0.1773
     20 C           6.8520   -0.1990   19.5920 C.ar    1  UNL1        0.0925
     21 C           5.8510    0.7310   20.0300 C.ar    1  UNL1        0.0184
     22 C           5.4530    0.8770   21.3870 C.ar    1  UNL1        0.0014
     23 C           4.3950    1.6710   21.7310 C.ar    1  UNL1        0.0000
     24 C           3.6890    2.3680   20.7620 C.ar    1  UNL1        0.0001
     25 C           4.0250    2.2590   19.4440 C.ar    1  UNL1        0.0016
     26 C           5.0980    1.4250   19.0380 C.ar    1  UNL1        0.0204
     27 C           5.3760    1.1410   17.6790 C.ar    1  UNL1        0.0989
     28 N           6.2590    0.2430   17.2750 N.ar    1  UNL1       -0.2410
     29 C           6.9540   -0.4100   18.2170 C.ar    1  UNL1        0.1154
@<TRIPOS>BOND
     1     2     1    1
     2     3     2   ar
     3     4     2   ar
     4     5     4   ar
     5     6     5   ar
     6     7     6    1
     7     8     7    1
     8     9     8    1
     9    10     9    1
    10    11    10    2
    11    12    10   am
    12    13    12    1
    13    14     6   ar
    14    14     3   ar
    15    15    14    1
    16    16    15    1
    17    16     8    1
    18    15    17    1
    19    18    17    2
    20    19    17   am
    21    20    19    1
    22    21    20   ar
    23    22    21   ar
    24    23    22   ar
    25    24    23   ar
    26    25    24   ar
    27    26    25   ar
    28    26    21   ar
    29    27    26   ar
    30    28    27   ar
    31    29    28   ar
    32    29    20   ar
