@<TRIPOS>MOLECULE
*****
 17 19 0 0 0
SMALL
GASTEIGER

@<TRIPOS>ATOM
      1 O           9.2210    0.8630   20.9830 O.2     1  UNL1       -0.2730
      2 C           8.6110   -0.0820   21.4710 C.2     1  UNL1        0.2456
      3 C           9.0620   -0.7430   22.7500 C.3     1  UNL1        0.0872
      4 C          10.4100   -1.4460   22.6440 C.3     1  UNL1        0.0091
      5 C          11.6750   -0.5920   22.3890 C.3     1  UNL1        0.0005
      6 C          12.3870   -1.2790   23.5680 C.3     1  UNL1        0.0000
      7 C          13.4220   -0.7310   24.4920 C.3     1  UNL1        0.0000
      8 C          13.7420   -1.9080   23.6090 C.3     1  UNL1        0.0000
      9 C          11.0330   -1.8760   23.9920 C.3     1  UNL1        0.0005
     10 N           7.4680   -0.5750   20.9640 N.am    1  UNL1       -0.1780
     11 C           6.7310   -0.0090   19.9010 C.ar    1  UNL1        0.0885
     12 C           5.5740    0.7390   20.1790 C.ar    1  UNL1       -0.0034
     13 C           5.0750    0.9440   21.5870 C.3     1  UNL1        0.0325
     14 C           7.1510   -0.1330   18.5760 C.ar    1  UNL1        0.1151
     15 N           6.5060    0.4270   17.5470 N.ar    1  UNL1       -0.2410
     16 C           5.4020    1.1320   17.8230 C.ar    1  UNL1        0.0987
     17 C           4.9120    1.3130   19.1010 C.ar    1  UNL1        0.0177
@<TRIPOS>BOND
     1     2     1    2
     2     3     2    1
     3     4     3    1
     4     5     4    1
     5     6     5    1
     6     7     6    1
     7     8     7    1
     8     8     6    1
     9     9     4    1
    10     9     6    1
    11    10     2   am
    12    11    10    1
    13    12    11   ar
    14    13    12    1
    15    14    11   ar
    16    15    14   ar
    17    16    15   ar
    18    17    16   ar
    19    17    12   ar
