@<TRIPOS>MOLECULE
*****
 49 51 0 0 0
SMALL
GASTEIGER

@<TRIPOS>ATOM
      1 C         -17.7600   11.6460   36.8480 C.3     1  UNL1        0.0559
      2 C         -18.5900   12.1270   37.8450 C.3     1  UNL1        0.1410
      3 C         -18.3680   13.4240   38.5830 C.3     1  UNL1        0.0343
      4 O         -19.6480   11.2830   38.0600 O.3     1  UNL1       -0.2687
      5 N         -19.5050   10.1590   37.1680 N.3     1  UNL1       -0.0810
      6 C         -18.3510   10.4240   36.4630 C.3     1  UNL1        0.1526
      7 C         -17.8610    9.5080   35.4150 C.3     1  UNL1        0.2442
      8 O         -17.2890    9.9490   34.4240 O.3     1  UNL1       -0.2020
      9 N         -18.1240    8.2300   35.6440 N.3     1  UNL1       -0.1853
     10 C         -17.7650    7.2290   34.6730 C.3     1  UNL1        0.1226
     11 C         -18.7560    7.4050   33.5530 C.3     1  UNL1        0.2417
     12 O         -19.8690    7.8130   33.8200 O.3     1  UNL1       -0.2021
     13 C         -17.9180    5.8370   35.2650 C.3     1  UNL1        0.0232
     14 N         -18.3560    7.1250   32.3070 N.3     1  UNL1       -0.1854
     15 C         -19.2200    7.2370   31.1420 C.3     1  UNL1        0.1225
     16 C         -19.4100    5.9030   30.4690 C.3     1  UNL1        0.2417
     17 O         -18.4860    5.1280   30.2060 O.3     1  UNL1       -0.2021
     18 C         -18.5570    8.2810   30.2300 C.3     1  UNL1        0.0201
     19 C         -19.1700    8.3500   28.8120 C.3     1  UNL1        0.0016
     20 C         -18.5320    9.6580   30.9280 C.3     1  UNL1        0.0016
     21 N         -20.6720    5.6330   30.1960 N.3     1  UNL1       -0.1854
     22 C         -21.0880    4.4240   29.4950 C.3     1  UNL1        0.1226
     23 C         -20.8140    4.6580   28.0420 C.3     1  UNL1        0.2416
     24 O         -21.2780    5.6560   27.4980 O.3     1  UNL1       -0.2021
     25 C         -22.5990    4.3580   29.7130 C.3     1  UNL1        0.0216
     26 C         -23.1250    3.0750   30.3530 C.3     1  UNL1        0.0015
     27 C         -22.1150    2.2950   31.1790 C.3     1  UNL1        0.0000
     28 C         -24.3400    3.4200   31.1940 C.3     1  UNL1        0.0000
     29 C         -19.8350    4.0740   25.9460 C.3     1  UNL1        0.0756
     30 C         -20.6980    3.1790   25.0670 C.3     1  UNL1        0.0228
     31 C         -22.1830    3.4590   25.1970 C.3     1  UNL1        0.0658
     32 C         -22.6580    4.0440   23.9110 C.3     1  UNL1        0.2690
     33 C         -18.3440    3.8940   25.6020 C.3     1  UNL1        0.0215
     34 C         -17.5330    5.0830   26.2390 C.3     1  UNL1        0.0503
     35 C         -17.9870    6.4540   25.6540 C.3     1  UNL1        0.0229
     36 C         -16.6240    7.3150   25.4630 C.3     1  UNL1        0.0914
     37 N         -15.5980    6.2750   25.6600 N.3     1  UNL1       -0.1893
     38 C         -16.0250    5.0350   26.0460 C.3     1  UNL1        0.2255
     39 O         -15.3160    4.0150   26.2380 O.3     1  UNL1       -0.2037
     40 N         -20.0680    3.7780   27.3710 N.3     1  UNL1       -0.1895
     41 O         -22.9910    3.2920   23.0110 O.3     1  UNL1       -0.1899
     42 C         -23.8400    6.2830   24.1800 C.3     1  UNL1        0.1448
     43 O         -22.7060    5.4970   23.7530 O.3     1  UNL1       -0.3285
     44 C         -22.7570    7.7790   25.9610 C.3     1  UNL1        0.0025
     45 C         -22.3850    9.0290   26.4700 C.3     1  UNL1        0.0001
     46 C         -22.6810   10.1850   25.7420 C.3     1  UNL1        0.0000
     47 C         -23.3550   10.0850   24.5120 C.3     1  UNL1        0.0001
     48 C         -23.7310    8.8350   24.0010 C.3     1  UNL1        0.0025
     49 C         -23.4280    7.6630   24.7230 C.3     1  UNL1        0.0298
@<TRIPOS>BOND
     1     2     1    1
     2     3     2    1
     3     4     2    1
     4     5     4    1
     5     6     5    1
     6     6     1    1
     7     7     6    1
     8     8     7    1
     9     9     7    1
    10    10     9    1
    11    11    10    1
    12    12    11    1
    13    10    13    1
    14    14    11    1
    15    15    14    1
    16    16    15    1
    17    17    16    1
    18    18    15    1
    19    18    19    1
    20    20    18    1
    21    21    16    1
    22    22    21    1
    23    23    22    1
    24    24    23    1
    25    22    25    1
    26    26    25    1
    27    26    27    1
    28    28    26    1
    29    29    30    1
    30    31    30    1
    31    32    31    1
    32    33    29    1
    33    34    33    1
    34    35    34    1
    35    36    35    1
    36    37    36    1
    37    38    34    1
    38    38    37    1
    39    39    38    1
    40    40    29    1
    41    40    23    1
    42    41    32    1
    43    43    32    1
    44    43    42    1
    45    45    44    1
    46    46    45    1
    47    47    46    1
    48    48    47    1
    49    49    48    1
    50    49    44    1
    51    49    42    1
