@<TRIPOS>MOLECULE
*****
 36 40 0 0 0
SMALL
GASTEIGER

@<TRIPOS>ATOM
      1 C           8.3690   -0.3000   21.1890 C.3     1  UNL1        0.2125
      2 C           8.6530   -2.2550   22.5050 C.3     1  UNL1        0.0055
      3 C           9.1640   -1.0230   22.0860 C.3     1  UNL1        0.0464
      4 C          10.5070   -0.5130   22.6110 C.3     1  UNL1        0.0075
      5 C          11.5590   -1.4250   22.8020 C.3     1  UNL1        0.0165
      6 C           6.3580   -0.0140   19.7560 C.3     1  UNL1        0.0771
      7 C          12.7970   -0.9850   23.2940 C.3     1  UNL1        0.0823
      8 C          12.9790    0.3710   23.5870 C.3     1  UNL1        0.0458
      9 C          11.9360    1.2830   23.3930 C.3     1  UNL1        0.1165
     10 C          11.2430    3.5980   23.2230 C.3     1  UNL1        0.1420
     11 C          11.9070    4.9000   23.6450 C.3     1  UNL1        0.0297
     12 C          10.7030    0.8390   22.9030 C.3     1  UNL1        0.0298
     13 C           6.7960    0.0030   18.4260 C.3     1  UNL1        0.1046
     14 C           4.8820    1.3400   17.8360 C.3     1  UNL1        0.0888
     15 C           4.4480    1.3190   19.1680 C.3     1  UNL1        0.0202
     16 C           5.1850    0.6320   20.1390 C.3     1  UNL1        0.0190
     17 C           6.6390   -1.9820   21.1100 C.3     1  UNL1        0.0744
     18 C           7.4200   -2.7230   22.0060 C.3     1  UNL1        0.0215
     19 C           6.8910   -4.0710   22.5000 C.3     1  UNL1        0.0664
     20 C           7.1530   -4.3790   23.8410 C.3     1  UNL1        0.0968
     21 C           6.1550   -4.9850   21.7160 C.3     1  UNL1        0.2301
     22 C           5.9920   -6.4620   23.6120 C.3     1  UNL1        0.3059
     23 C          13.1080    5.2930   23.0400 C.3     1  UNL1        0.0025
     24 C          13.7450    6.4790   23.4320 C.3     1  UNL1        0.0001
     25 C          13.1970    7.2650   24.4490 C.3     1  UNL1        0.0000
     26 C          12.0070    6.8690   25.0700 C.3     1  UNL1        0.0001
     27 C          11.3700    5.6930   24.6580 C.3     1  UNL1        0.0025
     28 N           7.1530   -0.7520   20.7130 N.3     1  UNL1       -0.2483
     29 N           6.0540    0.6850   17.4530 N.3     1  UNL1       -0.2166
     30 N           5.7240   -6.1690   22.2850 N.3     1  UNL1       -0.1436
     31 N           6.7090   -5.5700   24.4000 N.3     1  UNL1       -0.1734
     32 O           8.8450    0.9230   20.7710 O.3     1  UNL1       -0.2050
     33 O          12.1530    2.6340   23.6890 O.3     1  UNL1       -0.3562
     34 O           5.8480   -4.7830   20.4680 O.3     1  UNL1       -0.2035
     35 O           5.5640   -7.5780   24.1200 O.3     1  UNL1       -0.1830
     36 CL         14.1340   -2.1400   23.5770 Cl      1  UNL1       -0.1149
@<TRIPOS>BOND
     1     3     1    1
     2     3     2    1
     3     4     3    1
     4     5     4    1
     5     7     5    1
     6     8     7    1
     7     9     8    1
     8    11    10    1
     9    12     4    1
    10    12     9    1
    11    13     6    1
    12    15    14    1
    13    16    15    1
    14    16     6    1
    15    18    17    1
    16    18     2    1
    17    19    18    1
    18    20    19    1
    19    21    19    1
    20    23    11    1
    21    24    23    1
    22    25    24    1
    23    26    25    1
    24    27    11    1
    25    27    26    1
    26    28    17    1
    27    28     6    1
    28    28     1    1
    29    29    14    1
    30    29    13    1
    31    30    22    1
    32    30    21    1
    33    31    22    1
    34    31    20    1
    35    32     1    1
    36    33    10    1
    37    33     9    1
    38    34    21    1
    39    35    22    1
    40    36     7    1
