@<TRIPOS>MOLECULE
*****
 23 25 0 0 0
SMALL
GASTEIGER

@<TRIPOS>ATOM
      1 CL         13.8850   -1.9520   21.2200 Cl      1  UNL1       -0.0823
      2 C          12.7140   -1.1620   22.2360 C.ar    1  UNL1        0.0574
      3 C          13.1280   -0.1770   23.1100 C.ar    1  UNL1        0.0114
      4 C          12.1790    0.4500   23.9030 C.ar    1  UNL1        0.0006
      5 C          10.8410    0.1010   23.7970 C.ar    1  UNL1       -0.0037
      6 C          11.3880   -1.5230   22.1260 C.ar    1  UNL1        0.0076
      7 C          10.4290   -0.8690   22.8920 C.ar    1  UNL1       -0.0122
      8 C           8.9620   -1.1100   22.6270 C.3     1  UNL1        0.1135
      9 C           8.5220   -0.3330   21.4020 C.2     1  UNL1        0.2500
     10 O           9.2900    0.4020   20.7930 O.2     1  UNL1       -0.2726
     11 N           7.2110   -0.4100   21.1290 N.am    1  UNL1       -0.1773
     12 C           6.5230   -0.0530   19.9560 C.ar    1  UNL1        0.0926
     13 C           7.0640   -0.0670   18.6730 C.ar    1  UNL1        0.1154
     14 N           6.5120    0.5090   17.5980 N.ar    1  UNL1       -0.2410
     15 C           5.3660    1.1580   17.7710 C.ar    1  UNL1        0.0989
     16 C           5.2930    0.6470   20.1420 C.ar    1  UNL1        0.0214
     17 C           4.7080    1.2860   19.0150 C.ar    1  UNL1        0.0206
     18 C           3.5410    2.0640   19.2010 C.ar    1  UNL1        0.0047
     19 C           2.9760    2.1910   20.4350 C.ar    1  UNL1        0.0370
     20 C           4.6860    0.8130   21.4080 C.ar    1  UNL1        0.0383
     21 C           3.5500    1.5680   21.5360 C.ar    1  UNL1        0.1388
     22 O           2.8790    1.7590   22.7160 O.3     1  UNL1       -0.4714
     23 C           3.3910    1.1360   23.8960 C.3     1  UNL1        0.2525
@<TRIPOS>BOND
     1     2     1    1
     2     3     2   ar
     3     4     3   ar
     4     5     4   ar
     5     6     2   ar
     6     7     5   ar
     7     7     6   ar
     8     8     7    1
     9     9     8    1
    10    10     9    2
    11    11     9   am
    12    12    11    1
    13    13    12   ar
    14    14    13   ar
    15    15    14   ar
    16    16    12   ar
    17    17    16   ar
    18    17    15   ar
    19    18    17   ar
    20    19    18   ar
    21    20    16   ar
    22    21    20   ar
    23    21    19   ar
    24    22    21    1
    25    23    22    1
