@<TRIPOS>MOLECULE
*****
 24 26 0 0 0
SMALL
GASTEIGER

@<TRIPOS>ATOM
      1 CL         13.6390   -1.7980   21.7110 Cl      1  UNL1       -0.0814
      2 C          12.4240   -0.8500   22.5010 C.ar    1  UNL1        0.0679
      3 C          12.7820    0.2000   23.3340 C.ar    1  UNL1        0.0682
      4 CL         14.4420    0.6430   23.5470 Cl      1  UNL1       -0.0814
      5 C          11.8040    0.9350   23.9750 C.ar    1  UNL1        0.0120
      6 C          10.4720    0.6310   23.7730 C.ar    1  UNL1       -0.0015
      7 C          11.0870   -1.1470   22.2920 C.ar    1  UNL1        0.0098
      8 C          10.0960   -0.4020   22.9260 C.ar    1  UNL1        0.0032
      9 C           8.6250   -0.6940   22.6690 C.3     1  UNL1        0.1732
     10 N           8.2920   -2.1250   22.8310 N.3     1  UNL1       -0.2045
     11 C           7.6600   -2.3490   24.1310 C.3     1  UNL1        0.1084
     12 C           8.1240    0.0310   21.3950 C.2     1  UNL1        0.2657
     13 O           8.6180    1.0980   21.0300 O.2     1  UNL1       -0.2711
     14 N           7.0720   -0.5600   20.7860 N.am    1  UNL1       -0.1762
     15 C           6.3080   -0.0430   19.7230 C.ar    1  UNL1        0.0925
     16 C           5.2210    0.8340   20.0320 C.ar    1  UNL1        0.0184
     17 C           4.7440    1.0710   21.3480 C.ar    1  UNL1        0.0014
     18 C           3.7070    1.9330   21.5760 C.ar    1  UNL1        0.0000
     19 C           3.0930    2.5970   20.5230 C.ar    1  UNL1        0.0001
     20 C           3.5140    2.4010   19.2380 C.ar    1  UNL1        0.0016
     21 C           4.5880    1.5170   18.9570 C.ar    1  UNL1        0.0204
     22 C           5.0670    1.2680   17.6470 C.ar    1  UNL1        0.0989
     23 N           6.0570    0.4330   17.3600 N.ar    1  UNL1       -0.2410
     24 C           6.6480   -0.2010   18.3810 C.ar    1  UNL1        0.1154
@<TRIPOS>BOND
     1     2     1    1
     2     3     2   ar
     3     4     3    1
     4     5     3   ar
     5     6     5   ar
     6     7     2   ar
     7     8     6   ar
     8     8     7   ar
     9     9     8    1
    10     9    10    1
    11    11    10    1
    12    12     9    1
    13    13    12    2
    14    14    12   am
    15    15    14    1
    16    16    15   ar
    17    17    16   ar
    18    18    17   ar
    19    19    18   ar
    20    20    19   ar
    21    21    20   ar
    22    21    16   ar
    23    22    21   ar
    24    23    22   ar
    25    24    23   ar
    26    24    15   ar
