@<TRIPOS>MOLECULE
*****
 21 22 0 0 0
SMALL
GASTEIGER

@<TRIPOS>ATOM
      1 C           7.4520   -2.6560   18.3800 C.3     1  UNL1        0.0542
      2 C           6.4570   -2.7960   19.5090 C.3     1  UNL1        0.2128
      3 O           5.3800   -3.3240   19.3700 O.3     1  UNL1       -0.2050
      4 N           6.8150   -2.2260   20.6740 N.3     1  UNL1       -0.2456
      5 C           6.3180   -2.7340   21.9500 C.3     1  UNL1        0.0902
      6 C           7.7490   -1.1090   20.8240 C.3     1  UNL1        0.0917
      7 C           8.9080   -1.5300   21.7060 C.3     1  UNL1        0.0897
      8 N           8.4510   -2.1200   22.9830 N.3     1  UNL1       -0.2715
      9 C           7.4970   -3.2390   22.7640 C.3     1  UNL1        0.0736
     10 C           7.0750   -3.9310   24.0610 C.3     1  UNL1        0.0174
     11 C           6.0870   -5.0930   23.9070 C.3     1  UNL1        0.0014
     12 C           6.5450   -6.1380   22.8820 C.3     1  UNL1        0.0000
     13 C           5.8240   -5.7490   25.2520 C.3     1  UNL1        0.0000
     14 C           9.6020   -2.5020   23.8170 C.3     1  UNL1        0.0721
     15 C          10.7680   -1.5440   23.7270 C.3     1  UNL1        0.0172
     16 C          11.7720   -1.7480   22.7850 C.3     1  UNL1        0.0176
     17 C          12.7940   -0.8290   22.6630 C.3     1  UNL1        0.0800
     18 CL         14.0450   -1.1130   21.4840 Cl      1  UNL1       -0.1150
     19 C          12.8600    0.2910   23.4620 C.3     1  UNL1        0.0163
     20 C          11.8740    0.4830   24.4180 C.3     1  UNL1        0.0013
     21 C          10.8390   -0.4280   24.5490 C.3     1  UNL1        0.0015
@<TRIPOS>BOND
     1     2     1    1
     2     3     2    1
     3     4     2    1
     4     5     4    1
     5     6     4    1
     6     7     6    1
     7     8     7    1
     8     9     8    1
     9     9     5    1
    10     9    10    1
    11    11    10    1
    12    11    12    1
    13    13    11    1
    14    14     8    1
    15    15    14    1
    16    16    15    1
    17    17    16    1
    18    18    17    1
    19    19    17    1
    20    20    19    1
    21    21    15    1
    22    21    20    1
