@<TRIPOS>MOLECULE
*****
 26 28 0 0 0
SMALL
GASTEIGER

@<TRIPOS>ATOM
      1 F           1.6530    3.0980   21.4070 F       1  UNL1       -0.2041
      2 C           2.6450    2.2290   21.0520 C.ar    1  UNL1        0.1416
      3 C           3.1730    2.3370   19.7920 C.ar    1  UNL1        0.0488
      4 C           3.0830    1.3220   21.9800 C.ar    1  UNL1        0.0297
      5 C           4.1050    0.4610   21.6220 C.ar    1  UNL1        0.0039
      6 C           4.6730    0.5170   20.3480 C.ar    1  UNL1        0.0225
      7 C           4.2140    1.4870   19.4350 C.ar    1  UNL1        0.0869
      8 N           4.8470    1.6180   18.2030 N.ar    1  UNL1       -0.2078
      9 C           5.9250    0.8730   17.8020 C.ar    1  UNL1        0.2794
     10 O           6.5280    1.1630   16.7640 O.2     1  UNL1       -0.2652
     11 C           6.3410   -0.1570   18.7020 C.ar    1  UNL1        0.0671
     12 C           5.7540   -0.3600   19.9120 C.ar    1  UNL1        0.0613
     13 C           6.1320   -1.5630   20.7150 C.2     1  UNL1        0.2651
     14 O           5.3740   -2.5290   20.8130 O.2     1  UNL1       -0.2684
     15 N           7.2970   -1.5080   21.3600 N.am    1  UNL1       -0.1977
     16 C           7.6510   -2.4720   22.3940 C.3     1  UNL1        0.1626
     17 C           9.1250   -2.5040   22.6670 C.3     1  UNL1        0.2289
     18 O           9.5510   -1.1540   22.9170 O.3     1  UNL1       -0.4705
     19 C          10.8890   -0.8530   22.8480 C.ar    1  UNL1        0.1723
     20 C          11.2200    0.4690   23.2010 C.ar    1  UNL1        0.1724
     21 O          10.1610    1.2500   23.5790 O.3     1  UNL1       -0.4684
     22 C          10.4160    2.6200   23.8840 C.3     1  UNL1        0.2526
     23 C          11.8790   -1.7170   22.4020 C.ar    1  UNL1        0.0400
     24 C          13.1840   -1.2620   22.2850 C.ar    1  UNL1        0.0033
     25 C          13.5100    0.0340   22.6350 C.ar    1  UNL1        0.0033
     26 C          12.5360    0.9050   23.0990 C.ar    1  UNL1        0.0400
@<TRIPOS>BOND
     1     2     1    1
     2     3     2   ar
     3     4     2   ar
     4     5     4   ar
     5     6     5   ar
     6     7     6   ar
     7     7     3   ar
     8     8     7   ar
     9     9     8   ar
    10    10     9    2
    11    11     9   ar
    12    12     6   ar
    13    12    11   ar
    14    13    12    1
    15    14    13    2
    16    15    13   am
    17    16    15    1
    18    17    16    1
    19    18    17    1
    20    19    18    1
    21    20    19   ar
    22    21    20    1
    23    22    21    1
    24    23    19   ar
    25    24    23   ar
    26    25    24   ar
    27    26    25   ar
    28    26    20   ar
