@<TRIPOS>MOLECULE
*****
 25 27 0 0 0
SMALL
GASTEIGER

@<TRIPOS>ATOM
      1 CL         13.4950    0.6360   23.7070 Cl      1  UNL1       -0.0822
      2 C          11.8330    0.1800   23.9280 C.ar    1  UNL1        0.0587
      3 C          11.1850   -0.4880   22.9110 C.ar    1  UNL1        0.0077
      4 C          11.2130    0.4590   25.1310 C.ar    1  UNL1        0.0275
      5 C           9.9030    0.0310   25.3240 C.ar    1  UNL1        0.0659
      6 N           9.2660    0.3020   26.5330 N.pl3   1  UNL1       -0.2367
      7 C           7.9070   -0.0780   26.8970 C.3     1  UNL1        0.1227
      8 C           6.8630    0.9860   26.5060 C.3     1  UNL1        0.1717
      9 O           6.5150    0.9210   25.1220 O.3     1  UNL1       -0.2213
     10 C           5.6730    0.6270   27.3830 C.3     1  UNL1        0.0347
     11 C           6.2710    0.1530   28.7020 C.3     1  UNL1        0.0045
     12 C           7.7260   -0.2230   28.4150 C.3     1  UNL1        0.0243
     13 C           9.2440   -0.6530   24.3060 C.ar    1  UNL1        0.0124
     14 C           9.8730   -0.9030   23.0920 C.ar    1  UNL1       -0.0109
     15 C           9.1190   -1.5540   21.9600 C.3     1  UNL1        0.1135
     16 C           8.4660   -0.5000   21.0900 C.2     1  UNL1        0.2500
     17 O           9.0050    0.5820   20.8590 O.2     1  UNL1       -0.2726
     18 N           7.2660   -0.8570   20.5910 N.am    1  UNL1       -0.1777
     19 C           6.5940   -0.1160   19.5980 C.ar    1  UNL1        0.0885
     20 C           5.5020    0.6920   19.9510 C.ar    1  UNL1       -0.0034
     21 C           5.0420    0.8310   21.3790 C.3     1  UNL1        0.0325
     22 C           7.0110   -0.1340   18.2670 C.ar    1  UNL1        0.1151
     23 N           6.4220    0.5740   17.3010 N.ar    1  UNL1       -0.2410
     24 C           5.3670    1.3240   17.6480 C.ar    1  UNL1        0.0987
     25 C           4.8830    1.4100   18.9360 C.ar    1  UNL1        0.0177
@<TRIPOS>BOND
     1     2     1    1
     2     3     2   ar
     3     4     2   ar
     4     5     4   ar
     5     6     5    1
     6     7     6    1
     7     8     7    1
     8     8     9    1
     9    10     8    1
    10    11    10    1
    11    12     7    1
    12    12    11    1
    13    13     5   ar
    14    14    13   ar
    15    14     3   ar
    16    15    14    1
    17    16    15    1
    18    17    16    2
    19    18    16   am
    20    19    18    1
    21    20    19   ar
    22    21    20    1
    23    22    19   ar
    24    23    22   ar
    25    24    23   ar
    26    25    24   ar
    27    25    20   ar
