@<TRIPOS>MOLECULE
*****
 34 37 0 0 0
SMALL
GASTEIGER

@<TRIPOS>ATOM
      1 C          10.5580   -0.2630   22.0730 C.3     1  UNL1        0.1071
      2 C           7.9000   -3.2070   19.7490 C.3     1  UNL1        0.2249
      3 C           7.1410   -0.8870   18.9090 C.3     1  UNL1        0.0251
      4 C           4.7950    1.8510   19.8540 C.3     1  UNL1        0.0914
      5 C           6.2560    1.3510   18.1330 C.3     1  UNL1        0.2255
      6 C          10.7350    3.4980   22.4900 C.3     1  UNL1        0.0501
      7 C           9.8700    5.6540   23.3680 C.3     1  UNL1        0.0056
      8 C           9.6700    7.9860   22.7960 C.3     1  UNL1        0.1637
      9 O           9.7120    2.0670   20.8830 O.3     1  UNL1       -0.2050
     10 C          10.3240    2.1450   21.9370 C.3     1  UNL1        0.2127
     11 N          10.6590    1.0760   22.6540 N.3     1  UNL1       -0.2458
     12 C          11.1730    1.0780   24.0310 C.3     1  UNL1        0.0744
     13 C          11.6330   -0.3380   24.2580 C.3     1  UNL1        0.0175
     14 C          13.1430   -0.4100   24.0800 C.3     1  UNL1        0.0014
     15 C          13.4290   -1.3820   22.9360 C.3     1  UNL1        0.0001
     16 C          12.1150   -2.0600   22.6130 C.3     1  UNL1        0.0015
     17 C          11.0000   -1.1920   23.1800 C.3     1  UNL1        0.0201
     18 C           9.1640   -0.6340   21.6830 C.3     1  UNL1        0.2403
     19 O           8.2300   -0.3250   22.4020 O.3     1  UNL1       -0.2022
     20 N           9.0240   -1.2270   20.5020 N.3     1  UNL1       -0.1860
     21 C           7.7300   -1.7180   20.0620 C.3     1  UNL1        0.1170
     22 O           6.6340   -3.7870   19.4310 O.3     1  UNL1       -0.2087
     23 C           6.7790    0.5570   19.3010 C.3     1  UNL1        0.0504
     24 C           5.6480    0.6580   20.3240 C.3     1  UNL1        0.0229
     25 N           5.1930    2.0780   18.4730 N.3     1  UNL1       -0.1893
     26 O           6.7850    1.3440   17.0380 O.3     1  UNL1       -0.2037
     27 C           9.5160    4.2100   23.0530 C.3     1  UNL1        0.0043
     28 C           9.3740    6.6540   22.5490 C.3     1  UNL1        0.0354
     29 F           9.1580    8.9280   21.9890 F       1  UNL1       -0.2372
     30 C          10.4480    8.3410   23.8870 C.3     1  UNL1        0.0705
     31 C          10.9740    7.3390   24.6890 C.3     1  UNL1        0.1637
     32 F          11.7340    7.6850   25.7350 F       1  UNL1       -0.2372
     33 C          10.6870    5.9920   24.4420 C.3     1  UNL1        0.0354
     34 S           8.9630   -3.4100   18.3520 S.3     1  UNL1       -0.0461
@<TRIPOS>BOND
     1    10     9    1
     2    10     6    1
     3    11    10    1
     4     1    11    1
     5    12    11    1
     6    13    12    1
     7    14    13    1
     8    15    14    1
     9    16    15    1
    10    17     1    1
    11    17    16    1
    12    17    13    1
    13    18     1    1
    14    18    19    1
    15    20    18    1
    16    21    20    1
    17    21     3    1
    18    21     2    1
    19    22     2    1
    20    23     5    1
    21    23     3    1
    22    24     4    1
    23    24    23    1
    24    25     4    1
    25    25     5    1
    26    26     5    1
    27    27     6    1
    28    27     7    1
    29    28     8    1
    30    28     7    1
    31    29     8    1
    32    30     8    1
    33    31    30    1
    34    32    31    1
    35    33     7    1
    36    33    31    1
    37     2    34    1
