@<TRIPOS>MOLECULE
*****
 22 23 0 0 0
SMALL
GASTEIGER

@<TRIPOS>ATOM
      1 CL         13.9940   -1.4630   21.3920 Cl      1  UNL1       -0.0823
      2 C          12.6720   -0.8600   22.3570 C.ar    1  UNL1        0.0574
      3 C          12.9290    0.0510   23.3580 C.ar    1  UNL1        0.0114
      4 C          11.8660    0.5310   24.1070 C.ar    1  UNL1        0.0006
      5 C          10.5710    0.1140   23.8300 C.ar    1  UNL1       -0.0037
      6 C          11.3900   -1.2910   22.0730 C.ar    1  UNL1        0.0076
      7 C          10.3180   -0.7800   22.8010 C.ar    1  UNL1       -0.0122
      8 C           8.9000   -1.1370   22.4110 C.3     1  UNL1        0.1135
      9 C           8.3370   -0.2110   21.3520 C.2     1  UNL1        0.2501
     10 O           8.9750    0.7500   20.9230 O.2     1  UNL1       -0.2726
     11 N           7.0970   -0.5320   20.9230 N.am    1  UNL1       -0.1743
     12 C           6.4840    0.0290   19.7780 C.ar    1  UNL1        0.1263
     13 C           6.9440   -0.1180   18.4710 C.ar    1  UNL1        0.1185
     14 N           6.3760    0.4670   17.4110 N.ar    1  UNL1       -0.2407
     15 C           5.2970    1.2260   17.6260 C.ar    1  UNL1        0.1021
     16 C           4.7440    1.4530   18.8720 C.ar    1  UNL1        0.0589
     17 C           5.3510    0.8490   19.9600 C.ar    1  UNL1        0.1564
     18 O           4.8080    0.8500   21.2570 O.3     1  UNL1       -0.4812
     19 C           4.8130    2.0730   22.1000 C.3     1  UNL1        0.1335
     20 C           6.1340    2.8030   21.9780 C.3     1  UNL1        0.0436
     21 C           4.6120    1.5530   23.5040 C.3     1  UNL1        0.0436
     22 C           3.6580    2.9590   21.6840 C.3     1  UNL1        0.0436
@<TRIPOS>BOND
     1     2     1    1
     2     3     2   ar
     3     4     3   ar
     4     5     4   ar
     5     6     2   ar
     6     7     5   ar
     7     7     6   ar
     8     8     7    1
     9     9     8    1
    10    10     9    2
    11    11     9   am
    12    12    11    1
    13    13    12   ar
    14    14    13   ar
    15    15    14   ar
    16    16    15   ar
    17    17    16   ar
    18    17    12   ar
    19    18    17    1
    20    19    18    1
    21    19    20    1
    22    21    19    1
    23    22    19    1
