@<TRIPOS>MOLECULE
*****
 22 25 0 0 0
SMALL
GASTEIGER

@<TRIPOS>ATOM
      1 N           5.7560    0.6570   19.3560 N.ar    1  UNL1       -0.2815
      2 N           7.3400   -0.6010   20.6590 N.am    1  UNL1       -0.1430
      3 N           6.7730    0.6540   17.4040 N.ar    1  UNL1       -0.1242
      4 C           5.3400    1.9860   21.4660 C.3     1  UNL1        0.0246
      5 C          12.8660    0.0450   23.4140 C.ar    1  UNL1        0.0145
      6 O           8.9800    0.9140   21.0170 O.2     1  UNL1       -0.2726
      7 C           6.9340   -0.0290   19.4690 C.ar    1  UNL1        0.2445
      8 C          11.8850    0.6520   24.1800 C.ar    1  UNL1        0.0374
      9 C           8.7000   -0.8280   22.6740 C.3     1  UNL1        0.1075
     10 C           7.7830   -0.2940   23.7920 C.3     1  UNL1        0.0610
     11 C           8.2770    1.0540   24.2560 C.3     1  UNL1        0.2062
     12 C           4.8420    1.0150   20.4560 C.3     1  UNL1        0.0898
     13 C          10.1690   -0.5600   22.9550 C.ar    1  UNL1        0.0212
     14 C           5.7100    1.0430   18.0450 C.ar    1  UNL1        0.2036
     15 C           4.2860    2.3940   20.4900 C.3     1  UNL1        0.0246
     16 C          11.1740   -1.1720   22.2060 C.ar    1  UNL1        0.0106
     17 C          12.4980   -0.8640   22.4470 C.ar    1  UNL1        0.0576
     18 N           7.5720   -0.0280   18.3120 N.ar    1  UNL1       -0.1107
     19 O           9.6390    0.9950   24.7530 O.3     1  UNL1       -0.4757
     20 C           8.3730   -0.0890   21.3760 C.2     1  UNL1        0.2519
     21 C          10.5480    0.3500   23.9480 C.ar    1  UNL1        0.1350
     22 CL         13.7330   -1.6970   21.5500 Cl      1  UNL1       -0.0823
@<TRIPOS>BOND
     1     7     2    1
     2     7     1   ar
     3     8     5   ar
     4    10     9    1
     5    11    10    1
     6    12     4    1
     7    12     1    1
     8    13     9    1
     9    14     3   ar
    10    14     1   ar
    11    15    12    1
    12    15     4    1
    13    16    13   ar
    14    17    16   ar
    15    17     5   ar
    16    18     7   ar
    17    18     3   ar
    18    19    11    1
    19    20     6    2
    20    20     2   am
    21     9    20    1
    22    21    19    1
    23    21    13   ar
    24    21     8   ar
    25    22    17    1
