@<TRIPOS>MOLECULE
*****
 15 16 0 0 0
SMALL
GASTEIGER

@<TRIPOS>ATOM
      1 N           7.0070   -2.5880   20.8480 N.am    1  UNL1       -0.2767
      2 C           7.2710   -2.5500   18.3990 C.3     1  UNL1        0.0948
      3 O           5.9800   -4.1510   19.6100 O.2     1  UNL1       -0.2749
      4 C           6.6810   -3.1430   19.6640 C.2     1  UNL1        0.2262
      5 C           6.7440   -3.2430   22.1210 C.3     1  UNL1        0.1107
      6 C           7.7260   -1.3350   21.0540 C.3     1  UNL1        0.1107
      7 C           9.0430   -1.6400   21.7240 C.3     1  UNL1        0.0942
      8 C          10.1530   -2.6880   23.5830 C.3     1  UNL1        0.1057
      9 C          11.1220   -1.5530   23.6240 C.ar    1  UNL1        0.0234
     10 C          12.2130   -1.3090   22.7810 C.ar    1  UNL1        0.0041
     11 C          12.9030   -0.1310   23.1630 C.ar    1  UNL1        0.0072
     12 C          12.2280    0.5880   24.0860 C.ar    1  UNL1        0.0352
     13 C           8.0600   -3.5460   22.7960 C.3     1  UNL1        0.0942
     14 N           8.8490   -2.3270   23.0040 N.3     1  UNL1       -0.2656
     15 S          10.9950   -0.3250   24.8170 S.2     1  UNL1       -0.0894
@<TRIPOS>BOND
     1     4     3    2
     2     4     2    1
     3     4     1   am
     4     5     1    1
     5     6     1    1
     6     7     6    1
     7     9     8    1
     8    10     9   ar
     9    11    10   ar
    10    12    11   ar
    11    13     5    1
    12    14     7    1
    13    14    13    1
    14    14     8    1
    15    15    12   ar
    16    15     9   ar
