@<TRIPOS>MOLECULE
*****
 25 27 0 0 0
SMALL
GASTEIGER

@<TRIPOS>ATOM
      1 O          14.0290    6.9570   21.5310 O.2     1  UNL1       -0.2730
      2 C          13.5080    5.8930   21.8520 C.2     1  UNL1        0.2499
      3 C          13.3380    4.5270   21.2050 C.3     1  UNL1        0.1539
      4 N          12.8700    5.5090   22.9720 N.am    1  UNL1       -0.1652
      5 C          12.4960    4.1960   22.4440 C.3     1  UNL1        0.2718
      6 O          13.1130    3.1020   23.1620 O.3     1  UNL1       -0.4583
      7 C          12.6460    1.8360   22.8710 C.ar    1  UNL1        0.1412
      8 C          13.5160    0.8220   22.4940 C.ar    1  UNL1        0.0483
      9 C          12.9840   -0.4200   22.2060 C.ar    1  UNL1        0.0604
     10 CL         14.0530   -1.7040   21.7070 Cl      1  UNL1       -0.0822
     11 C          11.6280   -0.6690   22.2870 C.ar    1  UNL1        0.0078
     12 C          11.2820    1.6070   22.9620 C.ar    1  UNL1        0.0332
     13 C          10.7600    0.3570   22.6530 C.ar    1  UNL1       -0.0100
     14 C           9.2530    0.1380   22.6580 C.3     1  UNL1        0.1009
     15 C           8.7900   -1.2700   23.0710 C.3     1  UNL1        0.0144
     16 C           8.5380    0.9690   21.5870 C.2     1  UNL1        0.2492
     17 O           8.4500    2.1910   21.6800 O.2     1  UNL1       -0.2726
     18 N           8.0650    0.2690   20.5170 N.am    1  UNL1       -0.1777
     19 C           6.9050    0.4170   19.7070 C.ar    1  UNL1        0.0885
     20 C           5.7780    1.1510   20.1450 C.ar    1  UNL1       -0.0034
     21 C           5.3930    1.2390   21.6000 C.3     1  UNL1        0.0325
     22 C           4.8990    1.6130   19.1730 C.ar    1  UNL1        0.0177
     23 C           5.1160    1.2940   17.8490 C.ar    1  UNL1        0.0987
     24 N           6.1280    0.5300   17.4290 N.ar    1  UNL1       -0.2410
     25 C           6.9950    0.1000   18.3520 C.ar    1  UNL1        0.1151
@<TRIPOS>BOND
     1     2     1    2
     2     3     2    1
     3     4     2   am
     4     5     3    1
     5     5     4    1
     6     5     6    1
     7     7     6    1
     8     8     7   ar
     9     9     8   ar
    10    10     9    1
    11    11     9   ar
    12    12     7   ar
    13    13    12   ar
    14    13    11   ar
    15    14    13    1
    16    14    15    1
    17    16    14    1
    18    17    16    2
    19    18    16   am
    20    19    18    1
    21    20    19   ar
    22    21    20    1
    23    22    20   ar
    24    23    22   ar
    25    24    23   ar
    26    25    24   ar
    27    25    19   ar
