@<TRIPOS>MOLECULE
*****
 29 30 0 0 0
SMALL
GASTEIGER

@<TRIPOS>ATOM
      1 O           9.0120    1.2360   21.0310 O.2     1  UNL1       -0.2712
      2 C           8.1050    0.9570   21.8140 C.2     1  UNL1        0.2642
      3 N           7.9320    1.5710   22.9800 N.am    1  UNL1       -0.2011
      4 C           8.6760    2.7690   23.3250 C.3     1  UNL1        0.1472
      5 C           8.0610    3.9590   22.6600 C.3     1  UNL1        0.1656
      6 O           9.0400    4.9460   22.5250 O.3     1  UNL1       -0.3492
      7 C           8.4490    6.1870   22.2610 C.3     1  UNL1        0.1742
      8 C           7.0450   -0.0940   21.4510 C.3     1  UNL1        0.1817
      9 C           6.3890    0.2040   20.1140 C.ar    1  UNL1        0.0241
     10 C           5.2710    1.0210   20.0470 C.ar    1  UNL1        0.0010
     11 C           4.8160    1.4760   18.8250 C.ar    1  UNL1        0.0204
     12 C           5.5040    1.0900   17.6890 C.ar    1  UNL1        0.0989
     13 N           6.5750    0.2920   17.7140 N.ar    1  UNL1       -0.2426
     14 C           6.9840   -0.1460   18.9090 C.ar    1  UNL1        0.0967
     15 N           7.5010   -1.4750   21.7480 N.am    1  UNL1       -0.2480
     16 C           6.6880   -2.5230   21.4270 C.2     1  UNL1        0.2299
     17 O           5.5250   -2.3550   21.0950 O.2     1  UNL1       -0.2745
     18 C           7.2800   -3.9050   21.4230 C.3     1  UNL1        0.0857
     19 C           7.1660   -4.5200   20.0650 C.3     1  UNL1        0.0101
     20 C           8.7510   -1.6680   22.4290 C.ar    1  UNL1        0.0545
     21 C           8.7820   -1.8170   23.8160 C.ar    1  UNL1        0.0146
     22 C           9.9940   -1.9480   24.4740 C.ar    1  UNL1       -0.0030
     23 C          11.2000   -1.9090   23.7790 C.ar    1  UNL1       -0.0227
     24 C          12.5370   -1.9130   24.5360 C.3     1  UNL1        0.0189
     25 C          12.6610   -0.6170   25.3340 C.3     1  UNL1        0.0044
     26 C          12.6400   -3.1080   25.5040 C.3     1  UNL1        0.0044
     27 C          13.7380   -1.9830   23.5920 C.3     1  UNL1        0.0044
     28 C          11.1540   -1.7760   22.3920 C.ar    1  UNL1       -0.0030
     29 C           9.9490   -1.6640   21.7210 C.ar    1  UNL1        0.0146
@<TRIPOS>BOND
     1     2     1    2
     2     3     2   am
     3     4     3    1
     4     5     4    1
     5     6     5    1
     6     7     6    1
     7     8     2    1
     8     9     8    1
     9    10     9   ar
    10    11    10   ar
    11    12    11   ar
    12    13    12   ar
    13    14    13   ar
    14    14     9   ar
    15    15     8    1
    16    16    15   am
    17    17    16    2
    18    18    16    1
    19    19    18    1
    20    20    15    1
    21    21    20   ar
    22    22    21   ar
    23    23    22   ar
    24    24    23    1
    25    24    25    1
    26    26    24    1
    27    27    24    1
    28    28    23   ar
    29    29    20   ar
    30    29    28   ar
