@<TRIPOS>MOLECULE
*****
 30 33 0 0 0
SMALL
GASTEIGER

@<TRIPOS>ATOM
      1 O         -18.7950    5.2330   29.0450 O.3     1  UNL1       -0.2034
      2 C         -19.8580    5.3660   28.3840 C.3     1  UNL1        0.2302
      3 N         -21.0650    5.5990   29.0070 N.3     1  UNL1       -0.2485
      4 C         -22.2340    5.7620   28.1930 C.3     1  UNL1        0.0598
      5 C         -22.9700    4.7170   27.6080 C.3     1  UNL1        0.0175
      6 C         -24.0980    4.9230   26.7410 C.3     1  UNL1        0.0188
      7 C         -24.5450    6.2300   26.3910 C.3     1  UNL1        0.0754
      8 N         -25.6930    6.4860   25.4860 N.3     1  UNL1       -0.1907
      9 C         -26.0760    7.7220   24.8800 C.3     1  UNL1        0.2255
     10 C         -27.2660    7.9650   23.9050 C.3     1  UNL1        0.0514
     11 C         -26.9850    8.6530   22.5600 C.3     1  UNL1        0.0043
     12 O         -25.4310    8.7510   25.1490 O.3     1  UNL1       -0.2037
     13 C         -23.7710    7.2610   26.9490 C.3     1  UNL1        0.0188
     14 C         -22.6630    7.0420   27.8030 C.3     1  UNL1        0.0175
     15 C         -21.2150    5.6010   30.4900 C.3     1  UNL1        0.0752
     16 C         -22.0830    4.4350   30.9530 C.3     1  UNL1        0.0277
     17 C         -23.4160    4.5320   30.9980 C.3     1  UNL1        0.0589
     18 S         -24.1910    3.0980   31.4740 S.3     1  UNL1       -0.1402
     19 C         -22.7130    2.2760   31.5830 C.3     1  UNL1        0.0576
     20 C         -21.6930    3.1150   31.2680 C.3     1  UNL1        0.0139
     21 C         -19.6700    5.2580   26.8310 C.3     1  UNL1        0.1414
     22 N         -18.3700    5.2160   26.3000 N.3     1  UNL1       -0.1837
     23 N         -17.6250    4.0370   26.2050 N.3     1  UNL1       -0.0538
     24 N         -16.4920    4.2700   25.7170 N.3     1  UNL1       -0.1152
     25 C         -16.3810    5.7060   25.4670 C.3     1  UNL1        0.1093
     26 C         -17.5890    6.2650   25.8590 C.3     1  UNL1        0.0932
     27 C         -17.8200    7.6530   25.7480 C.3     1  UNL1        0.0190
     28 C         -16.8130    8.4600   25.2250 C.3     1  UNL1        0.0015
     29 C         -15.5810    7.8890   24.8410 C.3     1  UNL1        0.0016
     30 C         -15.3680    6.5120   24.9510 C.3     1  UNL1        0.0205
@<TRIPOS>BOND
     1     2     1    1
     2     3     2    1
     3     4     3    1
     4     5     4    1
     5     6     5    1
     6     7     6    1
     7     8     7    1
     8     9     8    1
     9    10     9    1
    10    11    10    1
    11    12     9    1
    12    13     7    1
    13    14    13    1
    14    14     4    1
    15    15     3    1
    16    16    15    1
    17    17    16    1
    18    18    17    1
    19    19    18    1
    20    20    19    1
    21    20    16    1
    22    21     2    1
    23    22    21    1
    24    23    22    1
    25    24    23    1
    26    25    24    1
    27    26    22    1
    28    26    25    1
    29    27    26    1
    30    28    27    1
    31    29    28    1
    32    30    25    1
    33    30    29    1
