@<TRIPOS>MOLECULE
*****
 15 16 0 0 0
SMALL
GASTEIGER

@<TRIPOS>ATOM
      1 C           7.7350   -0.5650   -4.8300 C.3     1  UNL1        0.1538
      2 C           6.2130   -2.3860   -5.5540 C.ar    1  UNL1        0.0969
      3 C           5.3910   -2.6080   -6.5980 C.ar    1  UNL1        0.0458
      4 C           5.4800   -1.4850   -7.4330 C.ar    1  UNL1        0.1572
      5 C           4.7230   -1.2460   -8.7620 C.2     1  UNL1        0.2843
      6 C           3.2530   -2.0700  -10.7030 C.3     1  UNL1        0.1449
      7 C           4.1280   -2.4730  -11.8510 C.3     1  UNL1        0.1369
      8 C           3.3990   -2.1090  -13.2940 C.3     1  UNL1        0.0340
      9 C           3.8430   -2.9650  -14.1510 C.3     1  UNL1        0.0346
     10 C           4.3520   -4.2060  -13.3230 C.3     1  UNL1        0.1422
     11 N           6.7710   -1.1980   -5.7450 N.ar    1  UNL1       -0.2472
     12 N           3.9780   -2.3300   -9.4310 N.am    1  UNL1       -0.1977
     13 N           6.3090   -0.6520   -6.8950 N.ar    1  UNL1       -0.1645
     14 O           4.7360   -0.1580   -9.2190 O.2     1  UNL1       -0.2666
     15 O           4.3120   -3.7650  -11.8380 O.3     1  UNL1       -0.3544
@<TRIPOS>BOND
     1     3     2   ar
     2     4     3   ar
     3     5     4    1
     4     7     6    1
     5     8     7    1
     6     9     8    1
     7    10     9    1
     8    11     2   ar
     9    11     1    1
    10    12     6    1
    11    12     5   am
    12    13    11   ar
    13    13     4   ar
    14    14     5    2
    15    15    10    1
    16    15     7    1
