@<TRIPOS>MOLECULE
*****
 20 22 0 0 0
SMALL
GASTEIGER

@<TRIPOS>ATOM
      1 N           6.9530   -2.2370   20.8200 N.am    1  UNL1       -0.2767
      2 C           8.4150   -3.0910   19.1570 C.3     1  UNL1        0.0948
      3 O           6.0530   -3.4430   19.1190 O.2     1  UNL1       -0.2749
      4 C           7.0220   -2.9400   19.6770 C.2     1  UNL1        0.2262
      5 C          12.0770    1.9540   24.6510 C.ar    1  UNL1       -0.0000
      6 C          11.0660    2.2190   25.5160 C.ar    1  UNL1       -0.0000
      7 C          10.0730    1.2630   25.7660 C.ar    1  UNL1       -0.0000
      8 C          10.0960    0.0660   25.1170 C.ar    1  UNL1       -0.0003
      9 C          11.1230   -0.2500   24.1890 C.ar    1  UNL1       -0.0027
     10 C           8.0500   -3.3600   22.7290 C.3     1  UNL1        0.0942
     11 C           6.7440   -2.9860   22.0610 C.3     1  UNL1        0.1107
     12 C           7.9080   -1.1320   20.9550 C.3     1  UNL1        0.1107
     13 C           9.1730   -1.5280   21.6910 C.3     1  UNL1        0.0942
     14 C          10.1030   -2.5210   23.6880 C.3     1  UNL1        0.0992
     15 C          11.1890   -1.4900   23.4920 C.ar    1  UNL1       -0.0061
     16 C          12.2090   -1.7000   22.5990 C.ar    1  UNL1       -0.0029
     17 C          13.2130   -0.7410   22.3830 C.ar    1  UNL1       -0.0003
     18 C          13.1770    0.4400   23.0460 C.ar    1  UNL1       -0.0000
     19 C          12.1350    0.7230   23.9600 C.ar    1  UNL1       -0.0003
     20 N           8.8710   -2.1760   22.9690 N.3     1  UNL1       -0.2660
@<TRIPOS>BOND
     1     4     3    2
     2     4     2    1
     3     4     1   am
     4     6     5   ar
     5     7     6   ar
     6     8     7   ar
     7     9     8   ar
     8    11     1    1
     9    11    10    1
    10    12     1    1
    11    13    12    1
    12    15    14    1
    13    15     9   ar
    14    16    15   ar
    15    17    16   ar
    16    18    17   ar
    17    19    18   ar
    18    19     9   ar
    19    19     5   ar
    20    20    13    1
    21    20    14    1
    22    20    10    1
