@<TRIPOS>MOLECULE
*****
 22 23 0 0 0
SMALL
GASTEIGER

@<TRIPOS>ATOM
      1 CL         13.9750   -1.4640   21.5980 Cl      1  UNL1       -0.0823
      2 C          12.6400   -0.8650   22.5430 C.ar    1  UNL1        0.0574
      3 C          12.8900   -0.0370   23.6170 C.ar    1  UNL1        0.0114
      4 C          11.8180    0.4620   24.3370 C.ar    1  UNL1        0.0006
      5 C          10.5180    0.1330   23.9780 C.ar    1  UNL1       -0.0037
      6 C          11.3480   -1.2090   22.1790 C.ar    1  UNL1        0.0076
      7 C          10.2720   -0.7060   22.8980 C.ar    1  UNL1       -0.0122
      8 C           8.8530   -1.0570   22.5000 C.3     1  UNL1        0.1135
      9 C           8.3190   -0.1500   21.4100 C.2     1  UNL1        0.2501
     10 O           8.9690    0.8040   20.9870 O.2     1  UNL1       -0.2726
     11 N           7.0960   -0.4880   20.9410 N.am    1  UNL1       -0.1743
     12 C           6.4750    0.0610   19.7920 C.ar    1  UNL1        0.1263
     13 C           6.8740   -0.1550   18.4740 C.ar    1  UNL1        0.1185
     14 N           6.2830    0.4080   17.4140 N.ar    1  UNL1       -0.2407
     15 C           5.2390    1.2130   17.6390 C.ar    1  UNL1        0.1021
     16 C           4.7440    1.5060   18.8950 C.ar    1  UNL1        0.0589
     17 C           5.3780    0.9290   19.9850 C.ar    1  UNL1        0.1564
     18 O           4.8390    0.9430   21.2880 O.3     1  UNL1       -0.4812
     19 C           4.8840    2.1620   22.1320 C.3     1  UNL1        0.1335
     20 C           3.7380    3.0780   21.7590 C.3     1  UNL1        0.0436
     21 C           6.2140    2.8730   21.9850 C.3     1  UNL1        0.0436
     22 C           4.7040    1.6300   23.5350 C.3     1  UNL1        0.0436
@<TRIPOS>BOND
     1     2     1    1
     2     3     2   ar
     3     4     3   ar
     4     5     4   ar
     5     6     2   ar
     6     7     5   ar
     7     7     6   ar
     8     8     7    1
     9     9     8    1
    10    10     9    2
    11    11     9   am
    12    12    11    1
    13    13    12   ar
    14    14    13   ar
    15    15    14   ar
    16    16    15   ar
    17    17    16   ar
    18    17    12   ar
    19    18    17    1
    20    19    18    1
    21    19    20    1
    22    21    19    1
    23    22    19    1
