@<TRIPOS>MOLECULE
*****
 20 21 0 0 0
SMALL
GASTEIGER

@<TRIPOS>ATOM
      1 N          14.3360   -1.9000   20.4280 N.1     1  UNL1       -0.1908
      2 C          13.6320   -1.4840   21.2260 C.1     1  UNL1        0.1004
      3 C          12.7050   -0.9780   22.2070 C.ar    1  UNL1        0.0681
      4 C          13.1380   -0.0980   23.1970 C.ar    1  UNL1        0.0103
      5 C          12.2190    0.4500   24.0790 C.ar    1  UNL1        0.0004
      6 C          10.8700    0.1510   23.9530 C.ar    1  UNL1       -0.0038
      7 C          11.3550   -1.3060   22.1090 C.ar    1  UNL1        0.0065
      8 C          10.4250   -0.7280   22.9680 C.ar    1  UNL1       -0.0131
      9 C           8.9450   -1.0460   22.7910 C.3     1  UNL1        0.1008
     10 C           8.1230   -0.8420   24.0700 C.3     1  UNL1        0.0144
     11 C           8.4610   -0.2040   21.6070 C.2     1  UNL1        0.2492
     12 O           9.1110    0.7450   21.1790 O.2     1  UNL1       -0.2726
     13 N           7.2790   -0.5770   21.0790 N.am    1  UNL1       -0.1777
     14 C           6.6630    0.0980   20.0110 C.ar    1  UNL1        0.0885
     15 C           5.5040    0.8580   20.2350 C.ar    1  UNL1       -0.0034
     16 C           4.9940    1.1530   21.6240 C.3     1  UNL1        0.0325
     17 C           4.8660    1.3820   19.1210 C.ar    1  UNL1        0.0177
     18 C           5.3990    1.1640   17.8660 C.ar    1  UNL1        0.0987
     19 N           6.5340    0.4840   17.6500 N.ar    1  UNL1       -0.2410
     20 C           7.1510   -0.0360   18.7120 C.ar    1  UNL1        0.1151
@<TRIPOS>BOND
     1     2     1    3
     2     3     2    1
     3     4     3   ar
     4     5     4   ar
     5     6     5   ar
     6     7     3   ar
     7     8     6   ar
     8     8     7   ar
     9     9     8    1
    10     9    10    1
    11    11     9    1
    12    12    11    2
    13    13    11   am
    14    14    13    1
    15    15    14   ar
    16    16    15    1
    17    17    15   ar
    18    18    17   ar
    19    19    18   ar
    20    20    19   ar
    21    20    14   ar
