@<TRIPOS>MOLECULE
*****
 20 21 0 0 0
SMALL
GASTEIGER

@<TRIPOS>ATOM
      1 N           5.8430   -5.4420   24.2820 N.3     1  UNL1       -0.1520
      2 C           0.7450   -1.4700   26.1140 C.3     1  UNL1        0.0310
      3 O           4.6250   -6.9170   25.8320 O.2     1  UNL1       -0.1528
      4 C           1.8210   -2.5010   26.0210 C.ar    1  UNL1       -0.0221
      5 C           5.8910   -6.0020   21.9230 C.3     1  UNL1        0.1126
      6 C           5.0000   -5.7610   23.1160 C.3     1  UNL1        0.1173
      7 C           6.8490   -4.1860   20.5180 C.2     1  UNL1        0.2262
      8 C           8.1440   -3.4640   20.2460 C.3     1  UNL1        0.0948
      9 C           3.1290   -2.1910   26.3200 C.ar    1  UNL1       -0.0029
     10 C           4.1240   -3.1380   26.2380 C.ar    1  UNL1        0.0193
     11 C           3.8230   -4.4370   25.8470 C.ar    1  UNL1        0.1182
     12 C           2.4970   -4.7920   25.5330 C.ar    1  UNL1       -0.0036
     13 C           2.0300   -6.1530   25.0950 C.3     1  UNL1        0.0324
     14 C           1.5310   -3.7960   25.6340 C.ar    1  UNL1       -0.0072
     15 C           6.6630   -4.2450   24.0460 C.3     1  UNL1        0.1173
     16 C           7.5620   -4.5080   22.8710 C.3     1  UNL1        0.1126
     17 N           6.7630   -4.8490   21.6930 N.am    1  UNL1       -0.2766
     18 O           6.1490   -5.1800   26.7070 O.2     1  UNL1       -0.1528
     19 O           5.9630   -4.2050   19.6720 O.2     1  UNL1       -0.2749
     20 S           5.1580   -5.5930   25.7620 S.O2    1  UNL1        0.0631
@<TRIPOS>BOND
     1     4     2    1
     2     6     5    1
     3     6     1    1
     4     8     7    1
     5     9     4   ar
     6    10     9   ar
     7    11    10   ar
     8    12    11   ar
     9    13    12    1
    10    14    12   ar
    11    14     4   ar
    12    15     1    1
    13    16    15    1
    14    17     5    1
    15    17     7   am
    16    17    16    1
    17    19     7    2
    18    20     3    2
    19    20    11    1
    20    20    18    2
    21    20     1    1
