@<TRIPOS>MOLECULE
*****
 49 51 0 0 0
SMALL
GASTEIGER

@<TRIPOS>ATOM
      1 C         -18.8480   11.6040   37.8700 C.3     1  UNL1        0.0559
      2 C         -19.7020   12.0230   38.8640 C.3     1  UNL1        0.1410
      3 C         -19.6130   13.3500   39.6170 C.3     1  UNL1        0.0343
      4 O         -20.6300   11.0590   39.0540 O.3     1  UNL1       -0.2687
      5 N         -20.3510   10.0160   38.1670 N.3     1  UNL1       -0.0810
      6 C         -19.2640   10.3580   37.4480 C.3     1  UNL1        0.1526
      7 C         -18.6090    9.4920   36.3430 C.3     1  UNL1        0.2442
      8 O         -18.0090   10.0050   35.4220 O.3     1  UNL1       -0.2020
      9 N         -18.7200    8.0490   36.4230 N.3     1  UNL1       -0.1853
     10 C         -18.1360    7.2260   35.4030 C.3     1  UNL1        0.1226
     11 C         -19.0250    7.4090   34.1760 C.3     1  UNL1        0.2417
     12 O         -20.2510    7.5180   34.3180 O.3     1  UNL1       -0.2021
     13 C         -18.1660    5.8070   35.8810 C.3     1  UNL1        0.0232
     14 N         -18.4420    7.4810   32.8450 N.3     1  UNL1       -0.1854
     15 C         -19.3210    7.6850   31.7000 C.3     1  UNL1        0.1225
     16 C         -19.7220    6.3760   31.0670 C.3     1  UNL1        0.2417
     17 O         -18.8580    5.5450   30.7640 O.3     1  UNL1       -0.2021
     18 C         -18.5750    8.5120   30.6800 C.3     1  UNL1        0.0201
     19 C         -19.4610    8.7920   29.4870 C.3     1  UNL1        0.0016
     20 C         -18.1220    9.8200   31.3070 C.3     1  UNL1        0.0016
     21 N         -21.1450    6.0770   30.7940 N.3     1  UNL1       -0.1854
     22 C         -21.4750    4.8310   30.1660 C.3     1  UNL1        0.1226
     23 C         -21.0600    5.0140   28.6870 C.3     1  UNL1        0.2416
     24 O         -21.4660    5.9840   28.0480 O.3     1  UNL1       -0.2021
     25 C         -22.9410    4.5550   30.3090 C.3     1  UNL1        0.0216
     26 C         -23.2020    3.7120   31.5880 C.3     1  UNL1        0.0015
     27 C         -24.6300    3.9820   32.0950 C.3     1  UNL1        0.0000
     28 C         -23.0510    2.1610   31.2300 C.3     1  UNL1        0.0000
     29 C         -19.8380    4.4120   26.6280 C.3     1  UNL1        0.0756
     30 C         -20.6740    3.6760   25.6350 C.3     1  UNL1        0.0228
     31 C         -21.7010    4.4590   25.1090 C.3     1  UNL1        0.0658
     32 C         -22.7040    3.9410   24.0710 C.3     1  UNL1        0.2690
     33 C         -18.3450    4.2870   26.3790 C.3     1  UNL1        0.0215
     34 C         -17.7790    5.4470   26.9480 C.3     1  UNL1        0.0503
     35 C         -18.1340    6.6670   26.0840 C.3     1  UNL1        0.0229
     36 C         -17.0180    7.4880   26.2000 C.3     1  UNL1        0.0914
     37 N         -15.8250    6.5420   26.3910 N.3     1  UNL1       -0.1893
     38 C         -16.2520    5.3690   26.8190 C.3     1  UNL1        0.2255
     39 O         -15.5640    4.3790   27.0770 O.3     1  UNL1       -0.2037
     40 N         -20.1570    4.0810   28.0180 N.3     1  UNL1       -0.1895
     41 O         -22.3450    3.6820   22.9690 O.3     1  UNL1       -0.1899
     42 C         -24.9610    4.7430   23.8200 C.3     1  UNL1        0.1448
     43 O         -24.0700    3.7730   24.4420 O.3     1  UNL1       -0.3285
     44 C         -24.5190    6.1120   26.0240 C.3     1  UNL1        0.0025
     45 C         -24.7460    7.2320   26.8370 C.3     1  UNL1        0.0001
     46 C         -25.6250    8.2340   26.4150 C.3     1  UNL1        0.0000
     47 C         -26.2780    8.1150   25.1820 C.3     1  UNL1        0.0001
     48 C         -26.0570    7.0010   24.3710 C.3     1  UNL1        0.0025
     49 C         -25.1760    5.9930   24.7900 C.3     1  UNL1        0.0298
@<TRIPOS>BOND
     1     2     1    1
     2     3     2    1
     3     4     2    1
     4     5     4    1
     5     6     5    1
     6     6     1    1
     7     7     6    1
     8     8     7    1
     9     9     7    1
    10    10     9    1
    11    11    10    1
    12    12    11    1
    13    10    13    1
    14    14    11    1
    15    15    14    1
    16    16    15    1
    17    17    16    1
    18    18    15    1
    19    18    19    1
    20    20    18    1
    21    21    16    1
    22    22    21    1
    23    23    22    1
    24    24    23    1
    25    22    25    1
    26    26    25    1
    27    26    27    1
    28    28    26    1
    29    29    30    1
    30    31    30    1
    31    32    31    1
    32    33    29    1
    33    34    33    1
    34    35    34    1
    35    36    35    1
    36    37    36    1
    37    38    34    1
    38    38    37    1
    39    39    38    1
    40    40    29    1
    41    40    23    1
    42    41    32    1
    43    43    42    1
    44    43    32    1
    45    45    44    1
    46    46    45    1
    47    47    46    1
    48    48    47    1
    49    49    42    1
    50    49    48    1
    51    49    44    1
