
     RDKit          3D

 49 51  0  0  0  0  0  0  0  0999 V2000
  -18.8480   11.6040   37.8700 C   0  0  0  0  0  0  0  0  0  0  0  0
  -19.7020   12.0230   38.8640 C   0  0  0  0  0  0  0  0  0  0  0  0
  -19.6130   13.3500   39.6170 C   0  0  0  0  0  0  0  0  0  0  0  0
  -20.6300   11.0590   39.0540 O   0  0  0  0  0  0  0  0  0  0  0  0
  -20.3510   10.0160   38.1670 N   0  0  0  0  0  0  0  0  0  0  0  0
  -19.2640   10.3580   37.4480 C   0  0  0  0  0  0  0  0  0  0  0  0
  -18.6090    9.4920   36.3430 C   0  0  0  0  0  0  0  0  0  0  0  0
  -18.0090   10.0050   35.4220 O   0  0  0  0  0  0  0  0  0  0  0  0
  -18.7200    8.0490   36.4230 N   0  0  0  0  0  0  0  0  0  0  0  0
  -18.1360    7.2260   35.4030 C   0  0  2  0  0  0  0  0  0  0  0  0
  -19.0250    7.4090   34.1760 C   0  0  0  0  0  0  0  0  0  0  0  0
  -20.2510    7.5180   34.3180 O   0  0  0  0  0  0  0  0  0  0  0  0
  -18.1660    5.8070   35.8810 C   0  0  0  0  0  0  0  0  0  0  0  0
  -18.4420    7.4810   32.8450 N   0  0  0  0  0  0  0  0  0  0  0  0
  -19.3210    7.6850   31.7000 C   0  0  2  0  0  0  0  0  0  0  0  0
  -19.7220    6.3760   31.0670 C   0  0  0  0  0  0  0  0  0  0  0  0
  -18.8580    5.5450   30.7640 O   0  0  0  0  0  0  0  0  0  0  0  0
  -18.5750    8.5120   30.6800 C   0  0  1  0  0  0  0  0  0  0  0  0
  -19.4610    8.7920   29.4870 C   0  0  0  0  0  0  0  0  0  0  0  0
  -18.1220    9.8200   31.3070 C   0  0  0  0  0  0  0  0  0  0  0  0
  -21.1450    6.0770   30.7940 N   0  0  0  0  0  0  0  0  0  0  0  0
  -21.4750    4.8310   30.1660 C   0  0  2  0  0  0  0  0  0  0  0  0
  -21.0600    5.0140   28.6870 C   0  0  0  0  0  0  0  0  0  0  0  0
  -21.4660    5.9840   28.0480 O   0  0  0  0  0  0  0  0  0  0  0  0
  -22.9410    4.5550   30.3090 C   0  0  0  0  0  0  0  0  0  0  0  0
  -23.2020    3.7120   31.5880 C   0  0  1  0  0  0  0  0  0  0  0  0
  -24.6300    3.9820   32.0950 C   0  0  0  0  0  0  0  0  0  0  0  0
  -23.0510    2.1610   31.2300 C   0  0  0  0  0  0  0  0  0  0  0  0
  -19.8380    4.4120   26.6280 C   0  0  2  0  0  0  0  0  0  0  0  0
  -20.6740    3.6760   25.6350 C   0  0  0  0  0  0  0  0  0  0  0  0
  -21.7010    4.4590   25.1090 C   0  0  0  0  0  0  0  0  0  0  0  0
  -22.7040    3.9410   24.0710 C   0  0  0  0  0  0  0  0  0  0  0  0
  -18.3450    4.2870   26.3790 C   0  0  0  0  0  0  0  0  0  0  0  0
  -17.7790    5.4470   26.9480 C   0  0  2  0  0  0  0  0  0  0  0  0
  -18.1340    6.6670   26.0840 C   0  0  0  0  0  0  0  0  0  0  0  0
  -17.0180    7.4880   26.2000 C   0  0  0  0  0  0  0  0  0  0  0  0
  -15.8250    6.5420   26.3910 N   0  0  0  0  0  0  0  0  0  0  0  0
  -16.2520    5.3690   26.8190 C   0  0  0  0  0  0  0  0  0  0  0  0
  -15.5640    4.3790   27.0770 O   0  0  0  0  0  0  0  0  0  0  0  0
  -20.1570    4.0810   28.0180 N   0  0  0  0  0  0  0  0  0  0  0  0
  -22.3450    3.6820   22.9690 O   0  0  0  0  0  0  0  0  0  0  0  0
  -24.9610    4.7430   23.8200 C   0  0  0  0  0  0  0  0  0  0  0  0
  -24.0700    3.7730   24.4420 O   0  0  0  0  0  0  0  0  0  0  0  0
  -24.5190    6.1120   26.0240 C   0  0  0  0  0  0  0  0  0  0  0  0
  -24.7460    7.2320   26.8370 C   0  0  0  0  0  0  0  0  0  0  0  0
  -25.6250    8.2340   26.4150 C   0  0  0  0  0  0  0  0  0  0  0  0
  -26.2780    8.1150   25.1820 C   0  0  0  0  0  0  0  0  0  0  0  0
  -26.0570    7.0010   24.3710 C   0  0  0  0  0  0  0  0  0  0  0  0
  -25.1760    5.9930   24.7900 C   0  0  0  0  0  0  0  0  0  0  0  0
  2  1  1  0
  3  2  1  0
  4  2  1  0
  5  4  1  0
  6  5  1  0
  6  1  1  0
  7  6  1  0
  8  7  1  0
  9  7  1  0
 10  9  1  0
 11 10  1  0
 12 11  1  0
 10 13  1  1
 14 11  1  0
 15 14  1  1
 16 15  1  0
 17 16  1  0
 18 15  1  0
 18 19  1  6
 20 18  1  0
 21 16  1  0
 22 21  1  0
 23 22  1  0
 24 23  1  0
 22 25  1  6
 26 25  1  0
 26 27  1  6
 28 26  1  0
 29 30  1  6
 31 30  1  0
 32 31  1  0
 33 29  1  0
 34 33  1  6
 35 34  1  0
 36 35  1  0
 37 36  1  0
 38 34  1  0
 38 37  1  0
 39 38  1  0
 40 29  1  0
 40 23  1  0
 41 32  1  0
 43 42  1  0
 43 32  1  0
 45 44  1  0
 46 45  1  0
 47 46  1  0
 48 47  1  0
 49 42  1  0
 49 48  1  0
 49 44  1  0
M  END
