@<TRIPOS>MOLECULE
*****
 20 22 0 0 0
SMALL
GASTEIGER

@<TRIPOS>ATOM
      1 O           8.9270    0.9580   21.3030 O.2     1  UNL1       -0.2726
      2 C           8.5640   -0.1740   21.6100 C.2     1  UNL1        0.2513
      3 C           9.0770   -0.8820   22.8500 C.3     1  UNL1        0.1135
      4 C          10.5540   -0.6320   23.0410 C.ar    1  UNL1       -0.0122
      5 C          11.0010    0.3620   23.9020 C.ar    1  UNL1       -0.0037
      6 C          12.3350    0.7400   23.9190 C.ar    1  UNL1        0.0006
      7 C          13.2500    0.1080   23.0900 C.ar    1  UNL1        0.0114
      8 C          11.4810   -1.2940   22.2420 C.ar    1  UNL1        0.0076
      9 C          12.8090   -0.9170   22.2800 C.ar    1  UNL1        0.0574
     10 CL         13.9540   -1.7640   21.2760 Cl      1  UNL1       -0.0823
     11 N           7.6980   -0.9030   20.8480 N.am    1  UNL1       -0.1598
     12 C           7.1140   -0.4030   19.6880 C.ar    1  UNL1        0.1601
     13 N           6.0540    0.4730   19.7460 N.ar    1  UNL1       -0.2759
     14 C           5.7680    0.8160   18.4280 C.ar    1  UNL1        0.1488
     15 N           6.5930    0.1930   17.5850 N.ar    1  UNL1       -0.2234
     16 C           7.4120   -0.5600   18.3760 C.ar    1  UNL1        0.1352
     17 C           5.3370    0.9850   20.8120 C.ar    1  UNL1        0.0827
     18 C           4.3230    1.8460   20.5770 C.ar    1  UNL1        0.0192
     19 C           4.0040    2.2220   19.2480 C.ar    1  UNL1        0.0046
     20 C           4.7060    1.7180   18.1910 C.ar    1  UNL1        0.0375
@<TRIPOS>BOND
     1     2     1    2
     2     3     2    1
     3     4     3    1
     4     5     4   ar
     5     6     5   ar
     6     7     6   ar
     7     8     4   ar
     8     9     8   ar
     9     9     7   ar
    10    10     9    1
    11    11     2   am
    12    12    11    1
    13    13    12   ar
    14    14    13   ar
    15    15    14   ar
    16    16    15   ar
    17    16    12   ar
    18    17    13   ar
    19    18    17   ar
    20    19    18   ar
    21    20    19   ar
    22    20    14   ar
