@<TRIPOS>MOLECULE
*****
 30 34 0 0 0
SMALL
GASTEIGER

@<TRIPOS>ATOM
      1 O           8.4660    1.0590   21.3740 O.2     1  UNL1       -0.2726
      2 C           8.2390   -0.1460   21.2830 C.2     1  UNL1        0.2493
      3 N           7.5510   -0.6880   20.2600 N.am    1  UNL1       -0.1774
      4 C           6.5420   -0.1460   19.4350 C.ar    1  UNL1        0.0925
      5 C           5.5740    0.7940   19.9300 C.ar    1  UNL1        0.0184
      6 C           5.2140    0.9150   21.2970 C.ar    1  UNL1        0.0014
      7 C           4.1980    1.7410   21.6890 C.ar    1  UNL1        0.0000
      8 C           3.4910    2.4880   20.7570 C.ar    1  UNL1        0.0001
      9 C           3.8000    2.4120   19.4300 C.ar    1  UNL1        0.0016
     10 C           4.8430    1.5620   18.9800 C.ar    1  UNL1        0.0204
     11 C           5.1360    1.3650   17.6100 C.ar    1  UNL1        0.0989
     12 N           6.0100    0.4860   17.1530 N.ar    1  UNL1       -0.2410
     13 C           6.6680   -0.2550   18.0510 C.ar    1  UNL1        0.1154
     14 C           8.8450   -1.1650   22.2500 C.3     1  UNL1        0.1036
     15 C          10.2490   -0.7380   22.6280 C.ar    1  UNL1        0.0004
     16 C          10.4370    0.2190   23.6330 C.ar    1  UNL1        0.0446
     17 C          11.7130    0.6880   23.9350 C.ar    1  UNL1        0.0151
     18 C          12.8110    0.1660   23.2730 C.ar    1  UNL1        0.0126
     19 C          11.3630   -1.2670   21.9810 C.ar    1  UNL1        0.0088
     20 C          12.6240   -0.8140   22.3190 C.ar    1  UNL1        0.0575
     21 CL         14.0100   -1.5000   21.5170 Cl      1  UNL1       -0.0823
     22 C           8.0070   -1.2980   23.5390 C.3     1  UNL1        0.0350
     23 C           7.9950    0.0090   24.3350 C.3     1  UNL1        0.0920
     24 N           9.3180    0.6410   24.4370 N.pl3   1  UNL1       -0.3012
     25 C           9.3720    1.8590   25.2260 C.3     1  UNL1        0.1593
     26 C           9.7590    1.5850   26.6440 C.ar    1  UNL1        0.1824
     27 N          10.6500    0.6830   27.0560 N.ar    1  UNL1       -0.1297
     28 N          10.7340    0.7170   28.4210 N.ar    1  UNL1       -0.1240
     29 C           9.8810    1.6480   28.7860 C.ar    1  UNL1        0.2228
     30 N           9.2340    2.2360   27.7470 N.ar    1  UNL1       -0.2040
@<TRIPOS>BOND
     1     2     1    2
     2     3     2   am
     3     4     3    1
     4     5     4   ar
     5     6     5   ar
     6     7     6   ar
     7     8     7   ar
     8     9     8   ar
     9    10     9   ar
    10    10     5   ar
    11    11    10   ar
    12    12    11   ar
    13    13    12   ar
    14    13     4   ar
    15    14     2    1
    16    15    14    1
    17    16    15   ar
    18    17    16   ar
    19    18    17   ar
    20    19    15   ar
    21    20    19   ar
    22    20    18   ar
    23    21    20    1
    24    22    14    1
    25    23    22    1
    26    24    23    1
    27    24    16    1
    28    25    24    1
    29    26    25    1
    30    27    26   ar
    31    28    27   ar
    32    29    28   ar
    33    30    26   ar
    34    30    29   ar
