@<TRIPOS>MOLECULE
*****
 21 22 0 0 0
SMALL
GASTEIGER

@<TRIPOS>ATOM
      1 N           5.5790   -5.1820   20.2100 N.3     1  UNL1       -0.1313
      2 C           5.8460   -5.0870   21.3200 C.3     1  UNL1        0.1121
      3 C           6.2490   -4.9420   22.6740 C.3     1  UNL1        0.0518
      4 C           7.5040   -4.4890   22.8860 C.3     1  UNL1        0.1498
      5 N           8.2820   -3.8280   21.9520 N.3     1  UNL1       -0.1731
      6 C           7.8560   -3.0160   20.9440 C.3     1  UNL1        0.2269
      7 C           8.9410   -2.5040   20.0240 C.3     1  UNL1        0.0556
      8 O           6.7100   -2.5750   20.8870 O.3     1  UNL1       -0.2036
      9 N           8.0760   -4.6320   24.1120 N.3     1  UNL1       -0.1926
     10 C           7.4560   -5.2130   25.1830 C.3     1  UNL1        0.1227
     11 S           8.3460   -5.2660   26.6930 S.3     1  UNL1       -0.1226
     12 C          10.0460   -5.4380   26.1410 C.3     1  UNL1        0.0706
     13 C           5.3720   -5.4870   23.7960 C.3     1  UNL1        0.0076
     14 C           6.1910   -5.6930   25.0690 C.3     1  UNL1        0.0455
     15 C           5.6300   -6.4650   26.1180 C.3     1  UNL1        0.1115
     16 N           5.1470   -7.1050   26.9380 N.3     1  UNL1       -0.1313
     17 C           4.6750   -6.7350   23.1910 C.3     1  UNL1        0.0003
     18 C           3.2650   -7.0030   23.7010 C.3     1  UNL1        0.0000
     19 C           2.3940   -5.7700   23.5800 C.3     1  UNL1        0.0000
     20 C           2.9930   -4.6250   24.3650 C.3     1  UNL1        0.0000
     21 C           4.3900   -4.2890   23.8560 C.3     1  UNL1        0.0003
@<TRIPOS>BOND
     1     2     1    1
     2     3     2    1
     3     4     3    1
     4     5     4    1
     5     6     5    1
     6     6     7    1
     7     8     6    1
     8     9     4    1
     9    10     9    1
    10    11    10    1
    11    12    11    1
    12    13     3    1
    13    14    13    1
    14    14    10    1
    15    14    15    1
    16    16    15    1
    17    13    17    1
    18    18    17    1
    19    19    18    1
    20    20    19    1
    21    21    13    1
    22    21    20    1
