
     RDKit          3D

 36 40  0  0  0  0  0  0  0  0999 V2000
    8.9020    1.0160   21.0310 O   0  0  0  0  0  0  0  0  0  0  0  0
    8.3950   -0.0630   21.3470 C   0  0  0  0  0  0  0  0  0  0  0  0
    7.2530   -0.5500   20.8090 N   0  0  0  0  0  0  0  0  0  0  0  0
    6.4770    0.0260   19.7850 C   0  0  0  0  0  0  0  0  0  0  0  0
    5.3710    0.8620   20.1380 C   0  0  0  0  0  0  0  0  0  0  0  0
    4.8990    1.0340   21.4660 C   0  0  0  0  0  0  0  0  0  0  0  0
    3.8650    1.8880   21.7400 C   0  0  0  0  0  0  0  0  0  0  0  0
    3.2490    2.6050   20.7210 C   0  0  0  0  0  0  0  0  0  0  0  0
    3.6590    2.4630   19.4260 C   0  0  0  0  0  0  0  0  0  0  0  0
    4.7220    1.5850   19.0970 C   0  0  0  0  0  0  0  0  0  0  0  0
    5.1920    1.3980   17.7760 C   0  0  0  0  0  0  0  0  0  0  0  0
    6.2030    0.6080   17.4470 N   0  0  0  0  0  0  0  0  0  0  0  0
    6.8210   -0.0520   18.4350 C   0  0  0  0  0  0  0  0  0  0  0  0
    9.0470   -1.0000   22.3920 C   0  0  1  0  0  0  0  0  0  0  0  0
   10.4660   -0.5880   22.7630 C   0  0  0  0  0  0  0  0  0  0  0  0
   10.7200    0.5380   23.5360 C   0  0  0  0  0  0  0  0  0  0  0  0
   12.0220    0.9170   23.8310 C   0  0  0  0  0  0  0  0  0  0  0  0
   13.0900    0.1730   23.3580 C   0  0  0  0  0  0  0  0  0  0  0  0
   11.5390   -1.3410   22.2970 C   0  0  0  0  0  0  0  0  0  0  0  0
   12.8300   -0.9420   22.5860 C   0  0  0  0  0  0  0  0  0  0  0  0
   14.1590   -1.8290   21.8980 Cl  0  0  0  0  0  0  0  0  0  0  0  0
    8.2290   -1.3440   23.5460 N   0  0  0  0  0  0  0  0  0  0  0  0
    7.4630   -0.4610   24.2010 C   0  0  0  0  0  0  0  0  0  0  0  0
    7.4960    0.7540   24.0050 O   0  0  0  0  0  0  0  0  0  0  0  0
    6.5430   -1.0370   25.2690 C   0  0  1  0  0  0  0  0  0  0  0  0
    6.5410   -2.4800   25.2380 O   0  0  0  0  0  0  0  0  0  0  0  0
    7.2730   -3.0420   26.3570 C   0  0  2  0  0  0  0  0  0  0  0  0
    7.9370   -1.8390   27.0230 C   0  0  0  0  0  0  0  0  0  0  0  0
    6.9940   -0.6810   26.6700 C   0  0  0  0  0  0  0  0  0  0  0  0
    8.2850   -4.0930   25.8770 C   0  0  0  0  0  0  0  0  0  0  0  0
    8.6940   -4.0790   24.7270 O   0  0  0  0  0  0  0  0  0  0  0  0
    8.7130   -5.0090   26.7650 N   0  0  0  0  0  0  0  0  0  0  0  0
    8.1250   -5.3000   28.0750 C   0  0  0  0  0  0  0  0  0  0  0  0
    9.2920   -5.8300   28.8600 C   0  0  0  0  0  0  0  0  0  0  0  0
   10.0940   -6.5870   27.8240 C   0  0  0  0  0  0  0  0  0  0  0  0
    9.8750   -5.8640   26.5030 C   0  0  0  0  0  0  0  0  0  0  0  0
  2  1  2  0
  3  2  1  0
  4  3  1  0
  5  4  1  0
  6  5  2  0
  7  6  1  0
  8  7  2  0
  9  8  1  0
 10  9  2  0
 10  5  1  0
 11 10  1  0
 12 11  2  0
 13 12  1  0
 13  4  2  0
 14  2  1  0
 15 14  1  0
 16 15  2  0
 17 16  1  0
 18 17  2  0
 19 15  1  0
 20 19  2  0
 20 18  1  0
 21 20  1  0
 14 22  1  1
 23 22  1  0
 24 23  2  0
 25 23  1  6
 26 25  1  0
 27 26  1  0
 28 27  1  0
 29 28  1  0
 29 25  1  0
 27 30  1  6
 31 30  2  0
 32 30  1  0
 33 32  1  0
 34 33  1  0
 35 34  1  0
 36 35  1  0
 36 32  1  0
M  END
