@<TRIPOS>MOLECULE
*****
 36 40 0 0 0
SMALL
GASTEIGER

@<TRIPOS>ATOM
      1 O           8.9020    1.0160   21.0310 O.2     1  UNL1       -0.2708
      2 C           8.3950   -0.0630   21.3470 C.2     1  UNL1        0.2697
      3 N           7.2530   -0.5500   20.8090 N.am    1  UNL1       -0.1759
      4 C           6.4770    0.0260   19.7850 C.ar    1  UNL1        0.0925
      5 C           5.3710    0.8620   20.1380 C.ar    1  UNL1        0.0184
      6 C           4.8990    1.0340   21.4660 C.ar    1  UNL1        0.0014
      7 C           3.8650    1.8880   21.7400 C.ar    1  UNL1        0.0000
      8 C           3.2490    2.6050   20.7210 C.ar    1  UNL1        0.0001
      9 C           3.6590    2.4630   19.4260 C.ar    1  UNL1        0.0016
     10 C           4.7220    1.5850   19.0970 C.ar    1  UNL1        0.0204
     11 C           5.1920    1.3980   17.7760 C.ar    1  UNL1        0.0989
     12 N           6.2030    0.6080   17.4470 N.ar    1  UNL1       -0.2410
     13 C           6.8210   -0.0520   18.4350 C.ar    1  UNL1        0.1154
     14 C           9.0470   -1.0000   22.3920 C.3     1  UNL1        0.1953
     15 C          10.4660   -0.5880   22.7630 C.ar    1  UNL1        0.0071
     16 C          10.7200    0.5380   23.5360 C.ar    1  UNL1       -0.0021
     17 C          12.0220    0.9170   23.8310 C.ar    1  UNL1        0.0006
     18 C          13.0900    0.1730   23.3580 C.ar    1  UNL1        0.0114
     19 C          11.5390   -1.3410   22.2970 C.ar    1  UNL1        0.0093
     20 C          12.8300   -0.9420   22.5860 C.ar    1  UNL1        0.0574
     21 CL         14.1590   -1.8290   21.8980 Cl      1  UNL1       -0.0823
     22 N           8.2290   -1.3440   23.5460 N.am    1  UNL1       -0.1911
     23 C           7.4630   -0.4610   24.2010 C.2     1  UNL1        0.2692
     24 O           7.4960    0.7540   24.0050 O.2     1  UNL1       -0.2707
     25 C           6.5430   -1.0370   25.2690 C.3     1  UNL1        0.1931
     26 O           6.5410   -2.4800   25.2380 O.3     1  UNL1       -0.3403
     27 C           7.2730   -3.0420   26.3570 C.3     1  UNL1        0.1916
     28 C           7.9370   -1.8390   27.0230 C.3     1  UNL1        0.0421
     29 C           6.9940   -0.6810   26.6700 C.3     1  UNL1        0.0421
     30 C           8.2850   -4.0930   25.8770 C.2     1  UNL1        0.2528
     31 O           8.6940   -4.0790   24.7270 O.2     1  UNL1       -0.2723
     32 N           8.7130   -5.0090   26.7650 N.am    1  UNL1       -0.2776
     33 C           8.1250   -5.3000   28.0750 C.3     1  UNL1        0.0935
     34 C           9.2920   -5.8300   28.8600 C.3     1  UNL1        0.0233
     35 C          10.0940   -6.5870   27.8240 C.3     1  UNL1        0.0233
     36 C           9.8750   -5.8640   26.5030 C.3     1  UNL1        0.0935
@<TRIPOS>BOND
     1     2     1    2
     2     3     2   am
     3     4     3    1
     4     5     4   ar
     5     6     5   ar
     6     7     6   ar
     7     8     7   ar
     8     9     8   ar
     9    10     9   ar
    10    10     5   ar
    11    11    10   ar
    12    12    11   ar
    13    13    12   ar
    14    13     4   ar
    15    14     2    1
    16    15    14    1
    17    16    15   ar
    18    17    16   ar
    19    18    17   ar
    20    19    15   ar
    21    20    19   ar
    22    20    18   ar
    23    21    20    1
    24    14    22    1
    25    23    22   am
    26    24    23    2
    27    25    23    1
    28    26    25    1
    29    27    26    1
    30    28    27    1
    31    29    28    1
    32    29    25    1
    33    27    30    1
    34    31    30    2
    35    32    30   am
    36    33    32    1
    37    34    33    1
    38    35    34    1
    39    36    35    1
    40    36    32    1
