@<TRIPOS>MOLECULE
*****
 30 34 0 0 0
SMALL
GASTEIGER

@<TRIPOS>ATOM
      1 O           8.3330    1.0190   21.6100 O.2     1  UNL1       -0.2726
      2 C           8.1470   -0.1840   21.4510 C.2     1  UNL1        0.2493
      3 N           7.5900   -0.7070   20.3360 N.am    1  UNL1       -0.1774
      4 C           6.5810   -0.2050   19.4840 C.ar    1  UNL1        0.0925
      5 C           5.5580    0.6740   19.9780 C.ar    1  UNL1        0.0184
      6 C           5.1650    0.7420   21.3420 C.ar    1  UNL1        0.0014
      7 C           4.1010    1.5030   21.7310 C.ar    1  UNL1        0.0000
      8 C           3.3790    2.2380   20.8050 C.ar    1  UNL1        0.0001
      9 C           3.7090    2.2040   19.4810 C.ar    1  UNL1        0.0016
     10 C           4.7950    1.4120   19.0290 C.ar    1  UNL1        0.0204
     11 C           5.0900    1.2290   17.6590 C.ar    1  UNL1        0.0989
     12 N           6.0050    0.3920   17.2010 N.ar    1  UNL1       -0.2410
     13 C           6.7080   -0.3060   18.1010 C.ar    1  UNL1        0.1154
     14 C           8.6430   -1.2230   22.4580 C.3     1  UNL1        0.1036
     15 C          10.0240   -0.7990   22.9110 C.ar    1  UNL1        0.0004
     16 C          10.1840    0.0620   24.0060 C.ar    1  UNL1        0.0446
     17 C          11.4390    0.5730   24.3260 C.ar    1  UNL1        0.0151
     18 C          12.5460    0.1910   23.5870 C.ar    1  UNL1        0.0126
     19 C          11.1520   -1.1980   22.1990 C.ar    1  UNL1        0.0088
     20 C          12.3910   -0.7080   22.5550 C.ar    1  UNL1        0.0575
     21 CL         13.8000   -1.2840   21.7060 Cl      1  UNL1       -0.0823
     22 C           7.7000   -1.3540   23.6690 C.3     1  UNL1        0.0350
     23 C           7.7020   -0.0830   24.5220 C.3     1  UNL1        0.0920
     24 N           9.0620    0.3460   24.8690 N.pl3   1  UNL1       -0.3012
     25 C           9.1890    1.1960   26.0410 C.3     1  UNL1        0.1593
     26 C           9.5170    0.4330   27.2850 C.ar    1  UNL1        0.1824
     27 N           9.8710    0.9590   28.4580 N.ar    1  UNL1       -0.1297
     28 N          10.0770   -0.0390   29.3680 N.ar    1  UNL1       -0.1240
     29 C           9.8340   -1.1450   28.6990 C.ar    1  UNL1        0.2228
     30 N           9.4820   -0.9500   27.4010 N.ar    1  UNL1       -0.2040
@<TRIPOS>BOND
     1     2     1    2
     2     3     2   am
     3     4     3    1
     4     5     4   ar
     5     6     5   ar
     6     7     6   ar
     7     8     7   ar
     8     9     8   ar
     9    10     9   ar
    10    10     5   ar
    11    11    10   ar
    12    12    11   ar
    13    13    12   ar
    14    13     4   ar
    15    14     2    1
    16    15    14    1
    17    16    15   ar
    18    17    16   ar
    19    18    17   ar
    20    19    15   ar
    21    20    19   ar
    22    20    18   ar
    23    21    20    1
    24    22    14    1
    25    23    22    1
    26    24    23    1
    27    24    16    1
    28    25    24    1
    29    26    25    1
    30    27    26   ar
    31    28    27   ar
    32    29    28   ar
    33    30    29   ar
    34    30    26   ar
