@<TRIPOS>MOLECULE
*****
 18 19 0 0 0
SMALL
GASTEIGER

@<TRIPOS>ATOM
      1 N          14.3990   -1.9780   20.5260 N.1     1  UNL1       -0.1908
      2 C          13.6900   -1.4980   21.2810 C.1     1  UNL1        0.1020
      3 C          12.7640   -0.9010   22.2100 C.ar    1  UNL1        0.0873
      4 C          13.1990   -0.1020   23.2680 C.ar    1  UNL1        0.1091
      5 N          12.3660    0.4740   24.1430 N.ar    1  UNL1       -0.2419
      6 C          11.0520    0.2600   23.9740 C.ar    1  UNL1        0.0951
      7 C          11.3960   -1.1080   22.0640 C.ar    1  UNL1        0.0096
      8 C          10.5110   -0.5150   22.9590 C.ar    1  UNL1        0.0068
      9 C           9.0180   -0.6630   22.7930 C.3     1  UNL1        0.1150
     10 C           8.5600    0.1200   21.5780 C.2     1  UNL1        0.2501
     11 O           9.3220    0.8720   20.9710 O.2     1  UNL1       -0.2726
     12 N           7.2540   -0.0210   21.2740 N.am    1  UNL1       -0.1773
     13 C           6.6290    0.1920   20.0280 C.ar    1  UNL1        0.0925
     14 C           7.2980    0.1370   18.8040 C.ar    1  UNL1        0.1154
     15 N           6.7950    0.6270   17.6640 N.ar    1  UNL1       -0.2410
     16 C           5.5920    1.2100   17.7230 C.ar    1  UNL1        0.0990
     17 C           4.8500    1.3120   18.8860 C.ar    1  UNL1        0.0220
     18 C           5.3700    0.7760   20.0500 C.ar    1  UNL1        0.0198
@<TRIPOS>BOND
     1     2     1    3
     2     3     2    1
     3     4     3   ar
     4     5     4   ar
     5     6     5   ar
     6     7     3   ar
     7     8     7   ar
     8     8     6   ar
     9     9     8    1
    10    10     9    1
    11    11    10    2
    12    12    10   am
    13    13    12    1
    14    14    13   ar
    15    15    14   ar
    16    16    15   ar
    17    17    16   ar
    18    18    17   ar
    19    18    13   ar
