@<TRIPOS>MOLECULE
*****
 29 32 0 0 0
SMALL
GASTEIGER

@<TRIPOS>ATOM
      1 O           6.5890    1.0860   16.8330 O.2     1  UNL1       -0.2652
      2 C           5.9110    0.8600   17.8400 C.ar    1  UNL1        0.2794
      3 C           6.1240   -0.2520   18.7070 C.ar    1  UNL1        0.0671
      4 N           4.9280    1.7350   18.2200 N.ar    1  UNL1       -0.2079
      5 C           4.1900    1.6280   19.3910 C.ar    1  UNL1        0.0847
      6 C           4.4340    0.5520   20.2660 C.ar    1  UNL1        0.0223
      7 C           3.7240    0.4770   21.4640 C.ar    1  UNL1        0.0016
      8 C           2.7520    1.4190   21.7570 C.ar    1  UNL1        0.0001
      9 C           2.4930    2.4510   20.8800 C.ar    1  UNL1        0.0015
     10 C           3.2120    2.5710   19.7020 C.ar    1  UNL1        0.0192
     11 C           5.4280   -0.4370   19.8620 C.ar    1  UNL1        0.0598
     12 C           5.6270   -1.7090   20.6190 C.2     1  UNL1        0.2493
     13 O           5.0790   -2.7340   20.2310 O.2     1  UNL1       -0.2699
     14 N           6.4060   -1.6910   21.7110 N.am    1  UNL1       -0.2726
     15 C           6.4160   -2.7740   22.7030 C.3     1  UNL1        0.1151
     16 C           7.8320   -3.3050   22.8890 C.3     1  UNL1        0.1123
     17 C           7.3440   -0.6010   22.0090 C.3     1  UNL1        0.1151
     18 C           8.7460   -1.1560   22.1430 C.3     1  UNL1        0.1123
     19 N           8.7630   -2.2040   23.1710 N.pl3   1  UNL1       -0.3041
     20 C           9.9460   -2.4610   23.8640 C.ar    1  UNL1        0.0479
     21 C           9.9580   -3.3610   24.9390 C.ar    1  UNL1        0.0145
     22 C          11.1350   -3.6080   25.6310 C.ar    1  UNL1        0.0012
     23 C          12.3050   -2.9720   25.2600 C.ar    1  UNL1        0.0039
     24 C          11.1380   -1.8260   23.4990 C.ar    1  UNL1        0.0184
     25 C          12.3170   -2.0910   24.1870 C.ar    1  UNL1        0.0726
     26 C          13.5940   -1.4710   23.7390 C.3     1  UNL1        0.4186
     27 F          14.5640   -2.3630   23.6470 F       1  UNL1       -0.1659
     28 F          14.0160   -0.5420   24.5830 F       1  UNL1       -0.1659
     29 F          13.5010   -0.8770   22.5370 F       1  UNL1       -0.1659
@<TRIPOS>BOND
     1     2     1    2
     2     3     2   ar
     3     4     2   ar
     4     5     4   ar
     5     6     5   ar
     6     7     6   ar
     7     8     7   ar
     8     9     8   ar
     9    10     9   ar
    10    10     5   ar
    11    11     6   ar
    12    11     3   ar
    13    12    11    1
    14    13    12    2
    15    14    12   am
    16    15    14    1
    17    16    15    1
    18    17    14    1
    19    18    17    1
    20    19    18    1
    21    19    16    1
    22    20    19    1
    23    21    20   ar
    24    22    21   ar
    25    23    22   ar
    26    24    20   ar
    27    25    24   ar
    28    25    23   ar
    29    26    25    1
    30    26    27    1
    31    28    26    1
    32    29    26    1
