@<TRIPOS>MOLECULE
*****
 21 23 0 0 0
SMALL
GASTEIGER

@<TRIPOS>ATOM
      1 O           9.2600    0.6340   21.0260 O.2     1  UNL1       -0.2726
      2 C           8.6850   -0.4040   21.3460 C.2     1  UNL1        0.2516
      3 C           9.1450   -1.2430   22.5210 C.3     1  UNL1        0.1328
      4 C          10.5290   -0.8120   22.9360 C.ar    1  UNL1        0.0692
      5 C          10.7440    0.1560   23.9110 C.ar    1  UNL1        0.0153
      6 C          12.0390    0.5890   24.1430 C.ar    1  UNL1        0.0037
      7 C          13.0920    0.0360   23.4280 C.ar    1  UNL1        0.0308
      8 N          11.5330   -1.3650   22.2370 N.ar    1  UNL1       -0.2378
      9 C          12.7620   -0.9470   22.5090 C.ar    1  UNL1        0.1379
     10 CL         14.0320   -1.7940   21.6770 Cl      1  UNL1       -0.0613
     11 N           7.5870   -0.8640   20.7190 N.am    1  UNL1       -0.1773
     12 C           6.8430   -0.2150   19.7190 C.ar    1  UNL1        0.0925
     13 C           5.7010    0.5430   20.1150 C.ar    1  UNL1        0.0184
     14 C           5.2580    0.6580   21.4570 C.ar    1  UNL1        0.0014
     15 C           4.1490    1.3910   21.7680 C.ar    1  UNL1        0.0000
     16 C           3.4310    2.0410   20.7770 C.ar    1  UNL1        0.0001
     17 C           3.8290    1.9810   19.4750 C.ar    1  UNL1        0.0016
     18 C           4.9720    1.2320   19.1070 C.ar    1  UNL1        0.0204
     19 C           5.4420    1.1340   17.7760 C.ar    1  UNL1        0.0989
     20 N           6.5150    0.4450   17.4130 N.ar    1  UNL1       -0.2410
     21 C           7.1800   -0.2130   18.3680 C.ar    1  UNL1        0.1154
@<TRIPOS>BOND
     1     2     1    2
     2     3     2    1
     3     4     3    1
     4     5     4   ar
     5     6     5   ar
     6     7     6   ar
     7     8     4   ar
     8     9     8   ar
     9     9     7   ar
    10    10     9    1
    11    11     2   am
    12    12    11    1
    13    13    12   ar
    14    14    13   ar
    15    15    14   ar
    16    16    15   ar
    17    17    16   ar
    18    18    17   ar
    19    18    13   ar
    20    19    18   ar
    21    20    19   ar
    22    21    20   ar
    23    21    12   ar
