@<TRIPOS>MOLECULE
*****
 32 35 0 0 0
SMALL
GASTEIGER

@<TRIPOS>ATOM
      1 C           6.9180   -2.0660   21.7550 C.3     1  UNL1        0.0743
      2 C           7.7230   -2.7580   22.7160 C.3     1  UNL1        0.0162
      3 C           7.1690   -3.9780   23.4430 C.3     1  UNL1        0.0028
      4 C           6.4440   -5.0110   22.8100 C.3     1  UNL1        0.0191
      5 C           6.1910   -5.0040   21.3060 C.3     1  UNL1        0.1093
      6 C           5.9450   -6.0830   23.5700 C.3     1  UNL1        0.0015
      7 O           9.1460    0.7230   20.7760 O.3     1  UNL1       -0.2050
      8 C           8.6990   -0.4220   21.4170 C.3     1  UNL1        0.2125
      9 C           6.6150   -0.2280   20.0990 C.3     1  UNL1        0.0771
     10 C           7.0520   -0.2010   18.7670 C.3     1  UNL1        0.1046
     11 C           5.0610    1.0420   18.1490 C.3     1  UNL1        0.0888
     12 C           4.6240    1.0160   19.4850 C.3     1  UNL1        0.0202
     13 C           5.3990    0.3680   20.4610 C.3     1  UNL1        0.0190
     14 O          12.7230    2.6370   23.2900 O.3     1  UNL1       -0.3562
     15 C           6.1570   -6.1200   24.9570 C.3     1  UNL1        0.0000
     16 C           6.8680   -5.0950   25.5880 C.3     1  UNL1        0.0000
     17 C           7.3660   -4.0290   24.8320 C.3     1  UNL1        0.0001
     18 C           9.0230   -2.2190   23.0370 C.3     1  UNL1        0.0054
     19 C           9.4960   -1.0730   22.3670 C.3     1  UNL1        0.0464
     20 C          10.8890   -0.5640   22.7390 C.3     1  UNL1        0.0075
     21 C          11.9080   -1.4990   23.0090 C.3     1  UNL1        0.0165
     22 C          13.1920   -1.0300   23.3640 C.3     1  UNL1        0.0823
     23 C          13.4510    0.3460   23.4650 C.3     1  UNL1        0.0458
     24 C          12.4320    1.2750   23.1990 C.3     1  UNL1        0.1165
     25 C          11.7640    3.5140   22.7860 C.3     1  UNL1        0.1420
     26 C          12.3830    4.9050   22.8690 C.3     1  UNL1        0.0321
     27 C          13.7970    4.8190   22.2990 C.3     1  UNL1        0.0027
     28 C          11.1520    0.8220   22.8350 C.3     1  UNL1        0.0298
     29 N           7.4310   -0.9000   21.0990 N.3     1  UNL1       -0.2483
     30 N           6.2800    0.4320   17.7910 N.3     1  UNL1       -0.2166
     31 N           6.0070   -4.9840   20.1860 N.3     1  UNL1       -0.1314
     32 CL         14.4960   -2.1750   23.7270 Cl      1  UNL1       -0.1149
@<TRIPOS>BOND
     1     2     1    1
     2     2     3    1
     3     4     3    1
     4     5     4    1
     5     6     4    1
     6     8     7    1
     7    10     9    1
     8    12    11    1
     9    13    12    1
    10    13     9    1
    11    15     6    1
    12    16    15    1
    13    17    16    1
    14    17     3    1
    15    18     2    1
    16    19     8    1
    17    19    18    1
    18    20    19    1
    19    21    20    1
    20    22    21    1
    21    23    22    1
    22    24    23    1
    23    24    14    1
    24    25    14    1
    25    26    25    1
    26    27    26    1
    27    28    20    1
    28    28    24    1
    29    29     9    1
    30    29     8    1
    31    29     1    1
    32    30    11    1
    33    30    10    1
    34    31     5    1
    35    32    22    1
