@<TRIPOS>MOLECULE
*****
 17 19 0 0 0
SMALL
GASTEIGER

@<TRIPOS>ATOM
      1 O           9.2250    1.1090   21.0440 O.2     1  UNL1       -0.2730
      2 C           8.6680    0.1390   21.5380 C.2     1  UNL1        0.2451
      3 C           9.1710   -0.5180   22.7990 C.3     1  UNL1        0.0786
      4 C          10.4080    0.1330   23.4720 C.3     1  UNL1        0.0091
      5 C          11.2670   -0.8600   22.6660 C.3     1  UNL1        0.0010
      6 C          12.3960   -1.3710   23.4080 C.3     1  UNL1        0.0000
      7 C          13.5930   -0.4970   23.6170 C.3     1  UNL1        0.0000
      8 C          13.6870   -1.6840   22.7180 C.3     1  UNL1        0.0000
      9 C          10.0380   -1.7910   22.6190 C.3     1  UNL1        0.0091
     10 N           7.5510   -0.4150   21.0310 N.am    1  UNL1       -0.1780
     11 C           6.8210    0.1160   19.9520 C.ar    1  UNL1        0.0885
     12 C           5.6260    0.8150   20.2020 C.ar    1  UNL1       -0.0034
     13 C           5.1220    1.0610   21.6010 C.3     1  UNL1        0.0325
     14 C           7.2780    0.0060   18.6380 C.ar    1  UNL1        0.1151
     15 N           6.6420    0.5500   17.5960 N.ar    1  UNL1       -0.2410
     16 C           5.4980    1.1950   17.8400 C.ar    1  UNL1        0.0987
     17 C           4.9560    1.3410   19.1040 C.ar    1  UNL1        0.0177
@<TRIPOS>BOND
     1     2     1    2
     2     3     2    1
     3     4     3    1
     4     5     4    1
     5     6     5    1
     6     6     7    1
     7     8     7    1
     8     8     6    1
     9     9     3    1
    10     9     5    1
    11    10     2   am
    12    11    10    1
    13    12    11   ar
    14    13    12    1
    15    14    11   ar
    16    15    14   ar
    17    16    15   ar
    18    17    16   ar
    19    17    12   ar
