@<TRIPOS>MOLECULE
*****
 30 33 0 0 0
SMALL
GASTEIGER

@<TRIPOS>ATOM
      1 O          22.6660    8.2030   -2.0950 O.2     1  UNL1       -0.2727
      2 C          21.8440    7.4440   -1.6040 C.2     1  UNL1        0.2492
      3 C          21.8880    5.9370   -1.8670 C.3     1  UNL1        0.1046
      4 C          22.9090    5.6920   -2.9840 C.ar    1  UNL1        0.0209
      5 C          22.5390    5.8240   -4.3210 C.ar    1  UNL1        0.0106
      6 C          23.4820    5.6330   -5.3100 C.ar    1  UNL1        0.0576
      7 CL         23.0090    5.8570   -6.9720 Cl      1  UNL1       -0.0823
      8 C          24.7900    5.3170   -5.0200 C.ar    1  UNL1        0.0145
      9 C          25.1800    5.1900   -3.6980 C.ar    1  UNL1        0.0374
     10 C          24.2400    5.3580   -2.6930 C.ar    1  UNL1        0.1350
     11 O          24.6880    5.0930   -1.4190 O.3     1  UNL1       -0.4757
     12 C          23.9180    5.6830   -0.3590 C.3     1  UNL1        0.2062
     13 C          22.4390    5.4020   -0.5240 C.3     1  UNL1        0.0607
     14 C          20.5430    5.2280   -2.1940 C.3     1  UNL1        0.0982
     15 C          19.5690    5.9740   -3.0900 C.2     1  UNL1        0.2265
     16 O          19.7810    7.1290   -3.4250 O.2     1  UNL1       -0.2748
     17 N          18.4610    5.3240   -3.4970 N.am    1  UNL1       -0.2760
     18 C          18.2190    3.8880   -3.3390 C.3     1  UNL1        0.1149
     19 C          17.3850    6.0500   -4.1700 C.3     1  UNL1        0.1149
     20 N          20.8510    7.7950   -0.7710 N.am    1  UNL1       -0.1774
     21 C          20.5460    9.0760   -0.3000 C.ar    1  UNL1        0.0925
     22 C          21.0580    9.4610    0.9750 C.ar    1  UNL1        0.0184
     23 C          21.8970    8.6390    1.7720 C.ar    1  UNL1        0.0014
     24 C          22.3230    9.0520    3.0030 C.ar    1  UNL1        0.0000
     25 C          21.9410   10.2840    3.5050 C.ar    1  UNL1        0.0001
     26 C          21.1550   11.1220    2.7650 C.ar    1  UNL1        0.0016
     27 C          20.6980   10.7370    1.4780 C.ar    1  UNL1        0.0204
     28 C          19.8770   11.5540    0.6620 C.ar    1  UNL1        0.0989
     29 N          19.4190   11.2030   -0.5360 N.ar    1  UNL1       -0.2410
     30 C          19.7460    9.9870   -0.9930 C.ar    1  UNL1        0.1154
@<TRIPOS>BOND
     1     2     1    2
     2     3     2    1
     3     4     3    1
     4     5     4   ar
     5     6     5   ar
     6     7     6    1
     7     8     6   ar
     8     9     8   ar
     9    10     9   ar
    10    10     4   ar
    11    11    10    1
    12    12    11    1
    13    13    12    1
    14    13     3    1
    15     3    14    1
    16    15    14    1
    17    16    15    2
    18    17    15   am
    19    18    17    1
    20    19    17    1
    21    20     2   am
    22    21    20    1
    23    22    21   ar
    24    23    22   ar
    25    24    23   ar
    26    25    24   ar
    27    26    25   ar
    28    27    22   ar
    29    27    26   ar
    30    28    27   ar
    31    29    28   ar
    32    30    21   ar
    33    30    29   ar
