@<TRIPOS>MOLECULE
*****
 24 26 0 0 0
SMALL
GASTEIGER

@<TRIPOS>ATOM
      1 CL         13.9040   -1.4470   21.7000 Cl      1  UNL1       -0.0814
      2 C          12.5850   -0.6680   22.5180 C.ar    1  UNL1        0.0681
      3 C          12.8230    0.3430   23.4380 C.ar    1  UNL1        0.0682
      4 CL         14.4410    0.8350   23.8210 Cl      1  UNL1       -0.0814
      5 C          11.7630    0.9430   24.0950 C.ar    1  UNL1        0.0121
      6 C          10.4700    0.5320   23.8320 C.ar    1  UNL1        0.0024
      7 C          11.2900   -1.0820   22.2500 C.ar    1  UNL1        0.0137
      8 C          10.2190   -0.4740   22.9030 C.ar    1  UNL1        0.0474
      9 C           8.8050   -0.8860   22.5810 C.3     1  UNL1        0.3509
     10 F           8.6960   -2.2060   22.2470 F       1  UNL1       -0.1897
     11 F           8.0070   -0.7180   23.6760 F       1  UNL1       -0.1897
     12 C           8.2560    0.0150   21.4440 C.2     1  UNL1        0.3110
     13 O           8.4890    1.2150   21.4240 O.2     1  UNL1       -0.2667
     14 N           7.5870   -0.6160   20.4550 N.am    1  UNL1       -0.1728
     15 C           6.5230   -0.2350   19.6030 C.ar    1  UNL1        0.0926
     16 C           5.4820    0.6470   20.0480 C.ar    1  UNL1        0.0184
     17 C           5.1060    0.8020   21.4080 C.ar    1  UNL1        0.0014
     18 C           4.0080    1.5360   21.7580 C.ar    1  UNL1        0.0000
     19 C           3.2370    2.1610   20.7910 C.ar    1  UNL1        0.0001
     20 C           3.5610    2.0560   19.4690 C.ar    1  UNL1        0.0016
     21 C           4.6800    1.2900   19.0600 C.ar    1  UNL1        0.0204
     22 C           4.9790    1.0360   17.7020 C.ar    1  UNL1        0.0989
     23 N           5.9220    0.2060   17.2920 N.ar    1  UNL1       -0.2410
     24 C           6.6440   -0.4200   18.2280 C.ar    1  UNL1        0.1154
@<TRIPOS>BOND
     1     2     1    1
     2     3     2   ar
     3     4     3    1
     4     5     3   ar
     5     6     5   ar
     6     7     2   ar
     7     8     6   ar
     8     8     7   ar
     9     9     8    1
    10     9    10    1
    11    11     9    1
    12    12     9    1
    13    13    12    2
    14    14    12   am
    15    15    14    1
    16    16    15   ar
    17    17    16   ar
    18    18    17   ar
    19    19    18   ar
    20    20    19   ar
    21    21    20   ar
    22    21    16   ar
    23    22    21   ar
    24    23    22   ar
    25    24    23   ar
    26    24    15   ar
