@<TRIPOS>MOLECULE
*****
 21 22 0 0 0
SMALL
GASTEIGER

@<TRIPOS>ATOM
      1 N           7.1320   -1.4270   21.5480 N.am    1  UNL1       -0.1977
      2 C          11.1920    0.3850   23.1050 C.ar    1  UNL1        0.1724
      3 C           4.6570    0.6010   20.4130 C.ar    1  UNL1        0.0255
      4 O           9.4370   -1.1350   22.7570 O.3     1  UNL1       -0.4705
      5 C           7.4480   -2.3970   22.5880 C.3     1  UNL1        0.1626
      6 O           6.5530    1.2320   16.8830 O.2     1  UNL1       -0.2652
      7 C          12.5390    0.7230   23.0750 C.ar    1  UNL1        0.0400
      8 C          10.7930   -0.9370   22.8230 C.ar    1  UNL1        0.1723
      9 C          11.7480   -1.9030   22.5450 C.ar    1  UNL1        0.0400
     10 C          13.0880   -1.5480   22.5110 C.ar    1  UNL1        0.0033
     11 C           5.6670   -0.3240   19.9850 C.ar    1  UNL1        0.0614
     12 C           5.9830    0.9560   17.9460 C.ar    1  UNL1        0.2795
     13 C           6.0200   -1.5140   20.8180 C.2     1  UNL1        0.2651
     14 C           4.3590    1.6290   19.5960 C.ar    1  UNL1        0.1023
     15 C           6.2990   -0.1420   18.7830 C.ar    1  UNL1        0.0671
     16 C          10.4970    2.6280   23.5860 C.3     1  UNL1        0.2526
     17 N           5.0000    1.7970   18.4100 N.ar    1  UNL1       -0.2063
     18 O          10.1690    1.2540   23.3760 O.3     1  UNL1       -0.4684
     19 O           5.2830   -2.4980   20.8570 O.2     1  UNL1       -0.2684
     20 C           8.9230   -2.4730   22.8470 C.3     1  UNL1        0.2289
     21 C          13.4780   -0.2470   22.7680 C.ar    1  UNL1        0.0033
@<TRIPOS>BOND
     1     5     1    1
     2     7     2   ar
     3     8     4    1
     4     8     2   ar
     5     9     8   ar
     6    10     9   ar
     7    11     3   ar
     8    12     6    2
     9    13    11    1
    10    13     1   am
    11    14     3   ar
    12    15    12   ar
    13    15    11   ar
    14    17    14   ar
    15    17    12   ar
    16    18    16    1
    17    18     2    1
    18    19    13    2
    19    20     5    1
    20    20     4    1
    21    21    10   ar
    22    21     7   ar
