@<TRIPOS>MOLECULE
*****
 25 28 0 0 0
SMALL
GASTEIGER

@<TRIPOS>ATOM
      1 O          10.6630    1.2720   24.7450 O.3     1  UNL1       -0.4756
      2 C           5.2380    1.1360   21.5800 C.ar    1  UNL1        0.0014
      3 C           9.3750   -0.6150   22.8810 C.3     1  UNL1        0.1721
      4 C           4.1520    1.9520   21.7310 C.ar    1  UNL1        0.0000
      5 C           3.5080    2.4820   20.6240 C.ar    1  UNL1        0.0001
      6 C           3.9440    2.1910   19.3630 C.ar    1  UNL1        0.0016
      7 CL         14.1510   -1.6130   21.0380 Cl      1  UNL1       -0.0823
      8 C           5.0580    1.3430   19.1610 C.ar    1  UNL1        0.0204
      9 C           5.5680    1.0240   17.8780 C.ar    1  UNL1        0.0989
     10 C           7.2750   -0.2090   18.7430 C.ar    1  UNL1        0.1154
     11 O           9.3550    1.0810   21.1630 O.2     1  UNL1       -0.2711
     12 C           6.8940    0.0150   20.0640 C.ar    1  UNL1        0.0925
     13 C           8.7890    0.1060   21.6430 C.2     1  UNL1        0.2653
     14 N           9.0480   -2.0500   22.8340 N.3     1  UNL1       -0.1203
     15 N           7.6320   -0.4230   21.1800 N.am    1  UNL1       -0.1762
     16 C           5.7310    0.8100   20.2910 C.ar    1  UNL1        0.0184
     17 C          10.8780   -0.3680   22.9580 C.ar    1  UNL1        0.0367
     18 C          11.7460   -1.0770   22.1310 C.ar    1  UNL1        0.0119
     19 C          13.0860   -0.7470   22.1130 C.ar    1  UNL1        0.0576
     20 C          13.6010    0.2590   22.9060 C.ar    1  UNL1        0.0145
     21 C          12.7600    0.9360   23.7690 C.ar    1  UNL1        0.0375
     22 C          11.4130    0.6140   23.7980 C.ar    1  UNL1        0.1363
     23 C           9.2430    1.3430   24.4720 C.3     1  UNL1        0.2077
     24 N           6.6360    0.2690   17.6670 N.ar    1  UNL1       -0.2410
     25 C           8.6600   -0.0070   24.1080 C.3     1  UNL1        0.0781
@<TRIPOS>BOND
     1     4     2   ar
     2     5     4   ar
     3     6     5   ar
     4     8     6   ar
     5     9     8   ar
     6    12    10   ar
     7    13    11    2
     8    13     3    1
     9     3    14    1
    10    15    13   am
    11    15    12    1
    12    16     8   ar
    13    16     2   ar
    14    16    12   ar
    15    17     3    1
    16    18    17   ar
    17    19     7    1
    18    19    18   ar
    19    20    19   ar
    20    21    20   ar
    21    22    17   ar
    22    22     1    1
    23    22    21   ar
    24    23     1    1
    25    24    10   ar
    26    24     9   ar
    27    25    23    1
    28    25     3    1
