@<TRIPOS>MOLECULE
*****
 27 30 0 0 0
SMALL
GASTEIGER

@<TRIPOS>ATOM
      1 O           6.2830    1.0320   16.8360 O.2     1  UNL1       -0.2652
      2 C           5.6430    0.8300   17.8770 C.ar    1  UNL1        0.2794
      3 C           5.9620   -0.1960   18.8160 C.ar    1  UNL1        0.0671
      4 N           4.5960    1.6480   18.2140 N.ar    1  UNL1       -0.2079
      5 C           3.8780    1.5590   19.4050 C.ar    1  UNL1        0.0847
      6 C           4.2360    0.5840   20.3570 C.ar    1  UNL1        0.0223
      7 C           3.5610    0.5440   21.5770 C.ar    1  UNL1        0.0016
      8 C           2.5070    1.4110   21.8170 C.ar    1  UNL1        0.0001
      9 C           2.1330    2.3370   20.8650 C.ar    1  UNL1        0.0015
     10 C           2.8190    2.4280   19.6640 C.ar    1  UNL1        0.0192
     11 C           5.3120   -0.3380   20.0090 C.ar    1  UNL1        0.0598
     12 C           5.7200   -1.4410   20.9300 C.2     1  UNL1        0.2496
     13 O           5.1670   -2.5330   20.8440 O.2     1  UNL1       -0.2699
     14 N           6.6580   -1.1810   21.8560 N.am    1  UNL1       -0.2660
     15 C           7.2440   -2.1550   22.7840 C.3     1  UNL1        0.1160
     16 C           8.7510   -2.2570   22.5610 C.3     1  UNL1        0.1197
     17 C           7.2440    0.1490   21.9920 C.3     1  UNL1        0.1799
     18 C           8.7440    0.1520   21.8960 C.2     1  UNL1        0.2497
     19 O           9.3180    1.0830   21.3510 O.2     1  UNL1       -0.2727
     20 N           9.3900   -0.9340   22.4090 N.am    1  UNL1       -0.2555
     21 C          10.7690   -0.8660   22.7550 C.ar    1  UNL1        0.0548
     22 C          11.7000   -1.5190   21.9510 C.ar    1  UNL1        0.0263
     23 C          13.0420   -1.3620   22.2230 C.ar    1  UNL1        0.0589
     24 CL         14.2010   -2.0970   21.1580 Cl      1  UNL1       -0.0822
     25 C          11.1940   -0.0980   23.8360 C.ar    1  UNL1        0.0150
     26 C          12.5500    0.0290   24.0970 C.ar    1  UNL1        0.0021
     27 C          13.4860   -0.6010   23.2880 C.ar    1  UNL1        0.0115
@<TRIPOS>BOND
     1     2     1    2
     2     3     2   ar
     3     4     2   ar
     4     5     4   ar
     5     6     5   ar
     6     7     6   ar
     7     8     7   ar
     8     9     8   ar
     9    10     9   ar
    10    10     5   ar
    11    11     6   ar
    12    11     3   ar
    13    12    11    1
    14    13    12    2
    15    14    12   am
    16    15    14    1
    17    16    15    1
    18    17    14    1
    19    18    17    1
    20    19    18    2
    21    20    18   am
    22    20    16    1
    23    21    20    1
    24    22    21   ar
    25    23    22   ar
    26    24    23    1
    27    25    21   ar
    28    26    25   ar
    29    27    26   ar
    30    27    23   ar
