@<TRIPOS>MOLECULE
*****
 16 16 0 0 0
SMALL
GASTEIGER

@<TRIPOS>ATOM
      1 N           7.1030   -3.3800   26.5130 N.am    1  UNL1       -0.2794
      2 C           9.0780   -4.7860   27.0660 C.3     1  UNL1        0.0215
      3 O           5.0980   -3.2490   25.4690 O.2     1  UNL1       -0.2749
      4 C           7.6350   -4.4540   27.3900 C.3     1  UNL1        0.0755
      5 C           6.5490   -4.2970   20.1000 C.2     1  UNL1        0.2261
      6 C           7.1000   -3.1620   19.2790 C.3     1  UNL1        0.0948
      7 C           6.7450   -5.6800   27.4150 C.3     1  UNL1        0.0215
      8 C           7.6230   -2.0370   26.7860 C.3     1  UNL1        0.1148
      9 C           6.2810   -3.6050   25.4680 C.2     1  UNL1        0.2253
     10 C           6.9300   -4.1720   24.2170 C.3     1  UNL1        0.0801
     11 C           5.9860   -5.1040   23.4540 C.3     1  UNL1        0.0306
     12 C           6.6450   -5.5980   22.1910 C.3     1  UNL1        0.0939
     13 C           7.9780   -3.5540   22.0150 C.3     1  UNL1        0.0939
     14 C           7.3770   -3.0290   23.2970 C.3     1  UNL1        0.0306
     15 N           7.0400   -4.4640   21.3490 N.am    1  UNL1       -0.2795
     16 O           5.6900   -5.0310   19.6310 O.2     1  UNL1       -0.2749
@<TRIPOS>BOND
     1     4     2    1
     2     4     1    1
     3     6     5    1
     4     7     4    1
     5     8     1    1
     6     9     3    2
     7     9     1   am
     8    10     9    1
     9    11    10    1
    10    12    11    1
    11    14    13    1
    12    14    10    1
    13    15    12    1
    14    15     5   am
    15    15    13    1
    16    16     5    2
