@<TRIPOS>MOLECULE
*****
 16 17 0 0 0
SMALL
GASTEIGER

@<TRIPOS>ATOM
      1 O           9.1080    0.5440   21.0920 O.2     1  UNL1       -0.2726
      2 C           8.4280   -0.4490   21.3510 C.2     1  UNL1        0.2506
      3 C           8.8260   -1.4140   22.4460 C.3     1  UNL1        0.1200
      4 C          10.0060   -0.7650   23.1060 C.ar    1  UNL1        0.0173
      5 C          10.0050   -0.0300   24.2720 C.ar    1  UNL1        0.0041
      6 C          11.2620    0.4910   24.6070 C.ar    1  UNL1        0.0182
      7 S          11.5930   -0.8300   22.4250 S.2     1  UNL1       -0.0794
      8 C          12.2030    0.1370   23.7030 C.ar    1  UNL1        0.0867
      9 CL         13.8680    0.5450   23.7400 Cl      1  UNL1       -0.0752
     10 N           7.2780   -0.7580   20.7130 N.am    1  UNL1       -0.1773
     11 C           6.6350   -0.0180   19.6980 C.ar    1  UNL1        0.0925
     12 C           7.2210    0.1430   18.4430 C.ar    1  UNL1        0.1154
     13 N           6.6390    0.8050   17.4370 N.ar    1  UNL1       -0.2410
     14 C           5.4370    1.3460   17.6650 C.ar    1  UNL1        0.0990
     15 C           4.7780    1.2560   18.8770 C.ar    1  UNL1        0.0220
     16 C           5.3860    0.5570   19.9070 C.ar    1  UNL1        0.0198
@<TRIPOS>BOND
     1     2     1    2
     2     3     2    1
     3     4     3    1
     4     5     4   ar
     5     6     5   ar
     6     7     4   ar
     7     8     7   ar
     8     8     6   ar
     9     9     8    1
    10    10     2   am
    11    11    10    1
    12    12    11   ar
    13    13    12   ar
    14    14    13   ar
    15    15    14   ar
    16    16    15   ar
    17    16    11   ar
