@<TRIPOS>MOLECULE
*****
 10 10 0 0 0
SMALL
GASTEIGER

@<TRIPOS>ATOM
      1 C          27.6350  -10.7230   16.3390 C.3     1  UNL1        0.0896
      2 C          28.9400   -9.4150   14.6890 C.3     1  UNL1        0.0896
      3 C          28.1040  -11.6490   14.1050 C.3     1  UNL1        0.0619
      4 C          28.7030  -11.5700   12.8350 C.3     1  UNL1        0.0349
      5 C          28.5320  -12.5990   11.9460 C.3     1  UNL1        0.0917
      6 C          27.2080  -13.7910   13.4240 C.3     1  UNL1        0.1653
      7 C          27.3350  -12.7920   14.3970 C.3     1  UNL1        0.0529
      8 N          28.2380  -10.6350   15.0240 N.3     1  UNL1       -0.2715
      9 N          27.8030  -13.6950   12.2120 N.3     1  UNL1       -0.2008
     10 N          26.4740  -14.9080   13.6570 N.3     1  UNL1       -0.1137
@<TRIPOS>BOND
     1     4     3    1
     2     5     4    1
     3     7     6    1
     4     7     3    1
     5     8     3    1
     6     8     2    1
     7     8     1    1
     8     9     6    1
     9     9     5    1
    10    10     6    1
