@<TRIPOS>MOLECULE
*****
 26 29 0 0 0
SMALL
GASTEIGER

@<TRIPOS>ATOM
      1 O           6.6700    0.9790   16.9160 O.2     1  UNL1       -0.2652
      2 C           6.0810    0.7010   17.9610 C.ar    1  UNL1        0.2794
      3 C           6.4400   -0.3850   18.8140 C.ar    1  UNL1        0.0671
      4 N           5.0410    1.4810   18.3940 N.ar    1  UNL1       -0.2079
      5 C           4.3760    1.3030   19.6040 C.ar    1  UNL1        0.0847
      6 C           4.7690    0.2580   20.4620 C.ar    1  UNL1        0.0223
      7 C           4.1430    0.1220   21.7010 C.ar    1  UNL1        0.0016
      8 C           3.1130    0.9770   22.0540 C.ar    1  UNL1        0.0001
      9 C           2.7030    1.9700   21.1920 C.ar    1  UNL1        0.0015
     10 C           3.3330    2.1460   19.9710 C.ar    1  UNL1        0.0192
     11 C           5.8240   -0.6330   19.9970 C.ar    1  UNL1        0.0598
     12 C           6.1570   -1.8740   20.7340 C.2     1  UNL1        0.2494
     13 O           5.3020   -2.7370   20.8850 O.2     1  UNL1       -0.2699
     14 N           7.3880   -2.0080   21.2300 N.am    1  UNL1       -0.2686
     15 C           8.5660   -1.1480   21.3840 C.3     1  UNL1        0.1390
     16 C           7.8780   -3.0180   22.1730 C.3     1  UNL1        0.1390
     17 C           9.2400   -2.3090   22.1320 C.3     1  UNL1        0.2054
     18 O           9.5720   -2.0250   23.5150 O.3     1  UNL1       -0.4726
     19 C          10.3640   -0.9460   23.8040 C.ar    1  UNL1        0.1722
     20 C          10.0240   -0.2480   24.9800 C.ar    1  UNL1        0.1724
     21 O           8.9860   -0.7840   25.6960 O.3     1  UNL1       -0.4684
     22 C           8.6370   -0.1660   26.9360 C.3     1  UNL1        0.2526
     23 C          11.4340   -0.5190   23.0290 C.ar    1  UNL1        0.0400
     24 C          12.1410    0.6120   23.4070 C.ar    1  UNL1        0.0033
     25 C          11.7900    1.3110   24.5430 C.ar    1  UNL1        0.0033
     26 C          10.7430    0.8820   25.3420 C.ar    1  UNL1        0.0400
@<TRIPOS>BOND
     1     2     1    2
     2     3     2   ar
     3     4     2   ar
     4     5     4   ar
     5     6     5   ar
     6     7     6   ar
     7     8     7   ar
     8     9     8   ar
     9    10     9   ar
    10    10     5   ar
    11    11     6   ar
    12    11     3   ar
    13    12    11    1
    14    13    12    2
    15    14    12   am
    16    15    14    1
    17    16    14    1
    18    17    15    1
    19    17    16    1
    20    17    18    1
    21    19    18    1
    22    20    19   ar
    23    21    20    1
    24    22    21    1
    25    23    19   ar
    26    24    23   ar
    27    25    24   ar
    28    26    20   ar
    29    26    25   ar
