@<TRIPOS>MOLECULE
*****
 20 21 0 0 0
SMALL
GASTEIGER

@<TRIPOS>ATOM
      1 O           9.3300    0.5580   21.0960 O.2     1  UNL1       -0.2730
      2 C           8.4130    0.1140   21.7790 C.2     1  UNL1        0.2459
      3 N           7.1200    0.1240   21.3940 N.am    1  UNL1       -0.1779
      4 C           6.5560    0.2520   20.1010 C.ar    1  UNL1        0.0885
      5 C           7.2820    0.0020   18.9360 C.ar    1  UNL1        0.1151
      6 N           6.8890    0.3840   17.7160 N.ar    1  UNL1       -0.2410
      7 C           5.7290    1.0400   17.6260 C.ar    1  UNL1        0.0987
      8 C           4.9260    1.3190   18.7110 C.ar    1  UNL1        0.0177
      9 C           5.3210    0.9150   19.9840 C.ar    1  UNL1       -0.0034
     10 C           4.4650    1.2250   21.1840 C.3     1  UNL1        0.0325
     11 C           8.6380   -0.4030   23.1850 C.3     1  UNL1        0.0912
     12 C           9.7370   -1.4880   23.3250 C.3     1  UNL1        0.0276
     13 C           9.4690   -2.5740   22.2710 C.3     1  UNL1        0.0049
     14 C           9.6020   -2.1460   24.7030 C.3     1  UNL1        0.0049
     15 C          11.1230   -0.8460   23.1810 C.ar    1  UNL1       -0.0223
     16 C          11.4680    0.2610   23.9530 C.ar    1  UNL1       -0.0043
     17 C          12.6950    0.8850   23.7880 C.ar    1  UNL1       -0.0003
     18 C          13.6000    0.4040   22.8640 C.ar    1  UNL1       -0.0000
     19 C          13.2830   -0.7030   22.1080 C.ar    1  UNL1       -0.0003
     20 C          12.0530   -1.3230   22.2590 C.ar    1  UNL1       -0.0043
@<TRIPOS>BOND
     1     2     1    2
     2     3     2   am
     3     4     3    1
     4     5     4   ar
     5     6     5   ar
     6     7     6   ar
     7     8     7   ar
     8     9     8   ar
     9     9     4   ar
    10    10     9    1
    11    11     2    1
    12    12    11    1
    13    12    13    1
    14    14    12    1
    15    15    12    1
    16    16    15   ar
    17    17    16   ar
    18    18    17   ar
    19    19    18   ar
    20    20    19   ar
    21    20    15   ar
