@<TRIPOS>MOLECULE
*****
 36 40 0 0 0
SMALL
GASTEIGER

@<TRIPOS>ATOM
      1 CL         13.7480   -1.4930   21.7150 Cl      1  UNL1       -0.0814
      2 C          12.4580   -0.6790   22.5390 C.ar    1  UNL1        0.0679
      3 C          12.7240    0.3140   23.4730 C.ar    1  UNL1        0.0682
      4 CL         14.3480    0.7430   23.8920 Cl      1  UNL1       -0.0814
      5 C          11.6840    0.9430   24.1200 C.ar    1  UNL1        0.0120
      6 C          10.3820    0.5700   23.8560 C.ar    1  UNL1       -0.0013
      7 C          11.1510   -1.0430   22.2560 C.ar    1  UNL1        0.0100
      8 C          10.0950   -0.4210   22.9230 C.ar    1  UNL1        0.0047
      9 C           8.6390   -0.8160   22.6300 C.3     1  UNL1        0.1674
     10 C           8.5740   -2.3120   22.2970 C.3     1  UNL1        0.0357
     11 C           8.1270    0.0830   21.4540 C.2     1  UNL1        0.2673
     12 N           7.2850   -0.5020   20.5760 N.am    1  UNL1       -0.1760
     13 C           6.2920   -0.0250   19.6930 C.ar    1  UNL1        0.0925
     14 C           5.3470    0.9900   20.0670 C.ar    1  UNL1        0.0184
     15 C           4.9290    1.2300   21.4040 C.ar    1  UNL1        0.0014
     16 C           3.9040    2.0930   21.6820 C.ar    1  UNL1        0.0000
     17 C           3.2530    2.7720   20.6640 C.ar    1  UNL1        0.0001
     18 C           3.6230    2.5890   19.3620 C.ar    1  UNL1        0.0016
     19 C           4.6690    1.6900   19.0250 C.ar    1  UNL1        0.0204
     20 C           4.9950    1.3630   17.6900 C.ar    1  UNL1        0.0989
     21 N           5.8520    0.4200   17.3420 N.ar    1  UNL1       -0.2410
     22 C           6.4500   -0.2610   18.3270 C.ar    1  UNL1        0.1154
     23 O           8.5220    1.2320   21.3170 O.2     1  UNL1       -0.2708
     24 N           7.7960   -0.5650   23.8080 N.am    1  UNL1       -0.1943
     25 C           7.0960    0.5410   24.1130 C.2     1  UNL1        0.2623
     26 O           7.3540    1.6570   23.6690 O.2     1  UNL1       -0.2715
     27 C           5.9090    0.3230   25.0370 C.3     1  UNL1        0.1821
     28 N           5.9040    1.2200   26.1760 N.am    1  UNL1       -0.2537
     29 C           4.9590    2.1820   26.3470 C.2     1  UNL1        0.3076
     30 O           3.9940    2.3700   25.6280 O.2     1  UNL1       -0.2523
     31 N           5.3110    2.9370   27.4350 N.am    1  UNL1       -0.2639
     32 C           6.7830    2.9140   27.5100 C.3     1  UNL1        0.1164
     33 C           7.1170    1.5480   26.9310 C.3     1  UNL1        0.1169
     34 C           4.6160    2.8560   28.7330 C.3     1  UNL1        0.0770
     35 C           3.2710    3.4840   28.8840 C.3     1  UNL1        0.0216
     36 C           3.4110    1.9900   28.8960 C.3     1  UNL1        0.0216
@<TRIPOS>BOND
     1     2     1    1
     2     3     2   ar
     3     4     3    1
     4     5     3   ar
     5     6     5   ar
     6     7     2   ar
     7     8     6   ar
     8     8     7   ar
     9     9     8    1
    10     9    10    1
    11    11     9    1
    12    12    11   am
    13    13    12    1
    14    14    13   ar
    15    15    14   ar
    16    16    15   ar
    17    17    16   ar
    18    18    17   ar
    19    19    18   ar
    20    19    14   ar
    21    20    19   ar
    22    21    20   ar
    23    22    21   ar
    24    22    13   ar
    25    23    11    2
    26    24     9    1
    27    25    24   am
    28    26    25    2
    29    27    25    1
    30    28    27    1
    31    29    28   am
    32    30    29    2
    33    31    29   am
    34    32    31    1
    35    33    28    1
    36    33    32    1
    37    34    31    1
    38    35    34    1
    39    36    35    1
    40    36    34    1
