@<TRIPOS>MOLECULE
*****
 20 21 0 0 0
SMALL
GASTEIGER

@<TRIPOS>ATOM
      1 N          14.3260   -1.9850   20.5020 N.1     1  UNL1       -0.1908
      2 C          13.6230   -1.5270   21.2760 C.1     1  UNL1        0.1004
      3 C          12.6970   -0.9580   22.2250 C.ar    1  UNL1        0.0681
      4 C          13.1560   -0.1430   23.2570 C.ar    1  UNL1        0.0103
      5 C          12.2520    0.3960   24.1570 C.ar    1  UNL1        0.0004
      6 C          10.8950    0.1590   24.0040 C.ar    1  UNL1       -0.0037
      7 C          11.3330   -1.2090   22.0870 C.ar    1  UNL1        0.0065
      8 C          10.4220   -0.6260   22.9610 C.ar    1  UNL1       -0.0124
      9 C           8.9410   -0.8190   22.7410 C.3     1  UNL1        0.1135
     10 C           8.4830   -0.0480   21.5220 C.2     1  UNL1        0.2500
     11 O           9.0970    0.9310   21.1090 O.2     1  UNL1       -0.2726
     12 N           7.3340   -0.5030   20.9780 N.am    1  UNL1       -0.1776
     13 C           6.6450    0.1180   19.9080 C.ar    1  UNL1        0.0898
     14 C           5.5010    0.8960   20.1590 C.ar    1  UNL1        0.0133
     15 C           5.0060    1.1350   21.5670 C.3     1  UNL1        0.0339
     16 C           7.1220   -0.0430   18.6130 C.ar    1  UNL1        0.1152
     17 N           6.5260    0.4980   17.5490 N.ar    1  UNL1       -0.2396
     18 C           5.4260    1.2280   17.7620 C.ar    1  UNL1        0.1166
     19 C           4.8670    1.4710   19.0560 C.ar    1  UNL1        0.1055
     20 N           3.7430    2.3020   19.1630 N.pl3   1  UNL1       -0.1267
@<TRIPOS>BOND
     1     2     1    3
     2     3     2    1
     3     4     3   ar
     4     5     4   ar
     5     6     5   ar
     6     7     3   ar
     7     8     6   ar
     8     8     7   ar
     9     9     8    1
    10    10     9    1
    11    11    10    2
    12    12    10   am
    13    13    12    1
    14    14    13   ar
    15    15    14    1
    16    16    13   ar
    17    17    16   ar
    18    18    17   ar
    19    19    18   ar
    20    19    14   ar
    21    20    19    1
