@<TRIPOS>MOLECULE
*****
 20 21 0 0 0
SMALL
GASTEIGER

@<TRIPOS>ATOM
      1 O           6.0480   -4.6560   20.0320 O.2     1  UNL1       -0.2749
      2 C           6.7310   -3.6650   20.2490 C.2     1  UNL1        0.2261
      3 C           7.1200   -2.7280   19.1220 C.3     1  UNL1        0.0948
      4 N           7.1500   -3.3360   21.4890 N.am    1  UNL1       -0.2795
      5 C           6.8980   -4.2190   22.6350 C.3     1  UNL1        0.0939
      6 C           6.0860   -3.4990   23.7080 C.3     1  UNL1        0.0307
      7 C           7.8700   -2.1110   21.8650 C.3     1  UNL1        0.0939
      8 C           7.1050   -1.3300   22.9400 C.3     1  UNL1        0.0307
      9 C           6.8250   -2.2290   24.1530 C.3     1  UNL1        0.0820
     10 C           6.0460   -1.4890   25.2040 C.2     1  UNL1        0.2452
     11 O           4.8220   -1.4070   25.1680 O.2     1  UNL1       -0.2730
     12 N           6.8070   -0.9300   26.1640 N.am    1  UNL1       -0.1776
     13 C           6.3720   -0.1320   27.2450 C.ar    1  UNL1        0.0927
     14 C           6.8380    1.1730   27.3810 C.ar    1  UNL1        0.1186
     15 N           6.6020    1.9470   28.4480 N.ar    1  UNL1       -0.2088
     16 C           5.8720    1.4160   29.4230 C.ar    1  UNL1        0.2251
     17 O           5.6570    2.0940   30.5710 O.3     1  UNL1       -0.4561
     18 C           6.2010    3.4120   30.6910 C.3     1  UNL1        0.2542
     19 C           5.3130    0.1310   29.3810 C.ar    1  UNL1        0.0591
     20 C           5.5740   -0.6380   28.2620 C.ar    1  UNL1        0.0230
@<TRIPOS>BOND
     1     2     1    2
     2     3     2    1
     3     4     2   am
     4     5     4    1
     5     6     5    1
     6     7     4    1
     7     8     7    1
     8     9     8    1
     9     9     6    1
    10     9    10    1
    11    11    10    2
    12    12    10   am
    13    13    12    1
    14    14    13   ar
    15    15    14   ar
    16    16    15   ar
    17    17    16    1
    18    18    17    1
    19    19    16   ar
    20    20    19   ar
    21    20    13   ar
