@<TRIPOS>MOLECULE
*****
 21 23 0 0 0
SMALL
GASTEIGER

@<TRIPOS>ATOM
      1 O           8.9190    0.8320   21.2880 O.2     1  UNL1       -0.2726
      2 C           8.3770   -0.2350   21.5890 C.2     1  UNL1        0.2500
      3 C           8.9590   -1.1580   22.6430 C.3     1  UNL1        0.1135
      4 C          10.3740   -0.7910   23.0320 C.ar    1  UNL1       -0.0122
      5 C          10.6220    0.1160   24.0550 C.ar    1  UNL1       -0.0037
      6 C          11.9120    0.5520   24.3210 C.ar    1  UNL1        0.0006
      7 C          12.9760    0.0930   23.5610 C.ar    1  UNL1        0.0114
      8 C          11.4500   -1.2900   22.3030 C.ar    1  UNL1        0.0076
      9 C          12.7260   -0.8360   22.5680 C.ar    1  UNL1        0.0574
     10 CL         14.0550   -1.4510   21.6190 Cl      1  UNL1       -0.0823
     11 N           7.2340   -0.6880   21.0190 N.am    1  UNL1       -0.1773
     12 C           6.4860   -0.1050   19.9740 C.ar    1  UNL1        0.0925
     13 C           5.3610    0.7140   20.3110 C.ar    1  UNL1        0.0184
     14 C           4.8790    0.8870   21.6360 C.ar    1  UNL1        0.0014
     15 C           3.8250    1.7170   21.8970 C.ar    1  UNL1        0.0000
     16 C           3.2010    2.4150   20.8710 C.ar    1  UNL1        0.0001
     17 C           3.6190    2.2740   19.5770 C.ar    1  UNL1        0.0016
     18 C           4.7020    1.4140   19.2590 C.ar    1  UNL1        0.0204
     19 C           5.1790    1.2210   17.9390 C.ar    1  UNL1        0.0989
     20 N           6.2080    0.4450   17.6220 N.ar    1  UNL1       -0.2410
     21 C           6.8350   -0.1910   18.6230 C.ar    1  UNL1        0.1154
@<TRIPOS>BOND
     1     2     1    2
     2     3     2    1
     3     4     3    1
     4     5     4   ar
     5     6     5   ar
     6     7     6   ar
     7     8     4   ar
     8     9     8   ar
     9     9     7   ar
    10    10     9    1
    11    11     2   am
    12    12    11    1
    13    13    12   ar
    14    14    13   ar
    15    15    14   ar
    16    16    15   ar
    17    17    16   ar
    18    18    17   ar
    19    18    13   ar
    20    19    18   ar
    21    20    19   ar
    22    21    20   ar
    23    21    12   ar
