@<TRIPOS>MOLECULE
*****
 11 11 0 0 0
SMALL
GASTEIGER

@<TRIPOS>ATOM
      1 C           8.5340   -0.0770   27.4360 C.3     1  UNL1        0.0252
      2 C           9.0890   -0.6240   26.1390 C.3     1  UNL1        0.1139
      3 C          11.0500   -0.2610   24.6290 C.ar    1  UNL1        0.1476
      4 C          10.6940   -1.3910   23.9040 C.ar    1  UNL1        0.0365
      5 C          11.4810   -1.8050   22.8480 C.ar    1  UNL1        0.0148
      6 C          12.6130   -1.0720   22.5400 C.ar    1  UNL1        0.0877
      7 C          13.5050   -1.5120   21.3870 C.1     1  UNL1        0.1020
      8 C          12.9120    0.0500   23.3100 C.ar    1  UNL1        0.1106
      9 N          10.2250    0.1790   25.7280 N.pl3   1  UNL1       -0.2203
     10 N          14.1860   -1.8150   20.5300 N.1     1  UNL1       -0.1908
     11 N          12.1330    0.4270   24.3230 N.ar    1  UNL1       -0.2270
@<TRIPOS>BOND
     1     2     1    1
     2     4     3   ar
     3     5     4   ar
     4     6     5   ar
     5     7     6    1
     6     8     6   ar
     7     9     2    1
     8     9     3    1
     9    10     7    3
    10    11     8   ar
    11    11     3   ar
