@<TRIPOS>MOLECULE
*****
 20 22 0 0 0
SMALL
GASTEIGER

@<TRIPOS>ATOM
      1 O           9.1310    1.0370   21.1350 O.2     1  UNL1       -0.2726
      2 C           8.7270   -0.1060   21.3450 C.2     1  UNL1        0.2500
      3 N           7.6600   -0.6560   20.7200 N.am    1  UNL1       -0.1773
      4 C           6.7920   -0.0700   19.7740 C.ar    1  UNL1        0.0925
      5 C           5.6080    0.5830   20.2480 C.ar    1  UNL1        0.0184
      6 C           5.2480    0.6640   21.6190 C.ar    1  UNL1        0.0014
      7 C           4.1340    1.3500   22.0120 C.ar    1  UNL1        0.0000
      8 C           3.3210    1.9780   21.0760 C.ar    1  UNL1        0.0001
      9 C           3.6190    1.9200   19.7420 C.ar    1  UNL1        0.0016
     10 C           4.7690    1.2230   19.2910 C.ar    1  UNL1        0.0204
     11 C           5.1560    1.1670   17.9310 C.ar    1  UNL1        0.0989
     12 N           6.2520    0.5650   17.4920 N.ar    1  UNL1       -0.2410
     13 C           7.0320   -0.0380   18.4000 C.ar    1  UNL1        0.1154
     14 C           9.3900   -1.0170   22.3590 C.3     1  UNL1        0.1135
     15 C          10.7790   -0.5780   22.7650 C.ar    1  UNL1       -0.0130
     16 C          10.9680    0.2790   23.8450 C.ar    1  UNL1       -0.0038
     17 C          12.2340    0.7420   24.1670 C.ar    1  UNL1       -0.0003
     18 C          13.3260    0.3650   23.4100 C.ar    1  UNL1       -0.0000
     19 C          13.1580   -0.5020   22.3490 C.ar    1  UNL1       -0.0003
     20 C          11.8920   -0.9790   22.0360 C.ar    1  UNL1       -0.0038
@<TRIPOS>BOND
     1     2     1    2
     2     3     2   am
     3     4     3    1
     4     5     4   ar
     5     6     5   ar
     6     7     6   ar
     7     8     7   ar
     8     9     8   ar
     9    10     9   ar
    10    10     5   ar
    11    11    10   ar
    12    12    11   ar
    13    13    12   ar
    14    13     4   ar
    15    14     2    1
    16    15    14    1
    17    16    15   ar
    18    17    16   ar
    19    18    17   ar
    20    19    18   ar
    21    20    15   ar
    22    20    19   ar
