
     RDKit          3D

 20 22  0  0  0  0  0  0  0  0999 V2000
    9.1310    1.0370   21.1350 O   0  0  0  0  0  0  0  0  0  0  0  0
    8.7270   -0.1060   21.3450 C   0  0  0  0  0  0  0  0  0  0  0  0
    7.6600   -0.6560   20.7200 N   0  0  0  0  0  0  0  0  0  0  0  0
    6.7920   -0.0700   19.7740 C   0  0  0  0  0  0  0  0  0  0  0  0
    5.6080    0.5830   20.2480 C   0  0  0  0  0  0  0  0  0  0  0  0
    5.2480    0.6640   21.6190 C   0  0  0  0  0  0  0  0  0  0  0  0
    4.1340    1.3500   22.0120 C   0  0  0  0  0  0  0  0  0  0  0  0
    3.3210    1.9780   21.0760 C   0  0  0  0  0  0  0  0  0  0  0  0
    3.6190    1.9200   19.7420 C   0  0  0  0  0  0  0  0  0  0  0  0
    4.7690    1.2230   19.2910 C   0  0  0  0  0  0  0  0  0  0  0  0
    5.1560    1.1670   17.9310 C   0  0  0  0  0  0  0  0  0  0  0  0
    6.2520    0.5650   17.4920 N   0  0  0  0  0  0  0  0  0  0  0  0
    7.0320   -0.0380   18.4000 C   0  0  0  0  0  0  0  0  0  0  0  0
    9.3900   -1.0170   22.3590 C   0  0  0  0  0  0  0  0  0  0  0  0
   10.7790   -0.5780   22.7650 C   0  0  0  0  0  0  0  0  0  0  0  0
   10.9680    0.2790   23.8450 C   0  0  0  0  0  0  0  0  0  0  0  0
   12.2340    0.7420   24.1670 C   0  0  0  0  0  0  0  0  0  0  0  0
   13.3260    0.3650   23.4100 C   0  0  0  0  0  0  0  0  0  0  0  0
   13.1580   -0.5020   22.3490 C   0  0  0  0  0  0  0  0  0  0  0  0
   11.8920   -0.9790   22.0360 C   0  0  0  0  0  0  0  0  0  0  0  0
  2  1  2  0
  3  2  1  0
  4  3  1  0
  5  4  1  0
  6  5  2  0
  7  6  1  0
  8  7  2  0
  9  8  1  0
 10  9  2  0
 10  5  1  0
 11 10  1  0
 12 11  2  0
 13 12  1  0
 13  4  2  0
 14  2  1  0
 15 14  1  0
 16 15  2  0
 17 16  1  0
 18 17  2  0
 19 18  1  0
 20 15  1  0
 20 19  2  0
M  END
> <BADATOMS>
3;4;12;9;8;7;6;13
> <BADCOMMENTS>
Weak density;Weak density;Weak density;Weak density;Weak density;Weak density;Weak density;Weak density