@<TRIPOS>MOLECULE
*****
 18 19 0 0 0
SMALL
GASTEIGER

@<TRIPOS>ATOM
      1 C           6.7980   -4.3890   20.9700 C.2     1  UNL1        0.2301
      2 C           8.0990   -3.7250   20.5760 C.3     1  UNL1        0.0952
      3 C           7.6150   -4.5890   23.2650 C.ar    1  UNL1        0.0543
      4 C           8.0870   -3.4120   23.8400 C.ar    1  UNL1        0.0172
      5 C           9.1160   -3.4600   24.7680 C.ar    1  UNL1        0.0309
      6 C           9.6450   -4.6770   25.0960 C.ar    1  UNL1        0.1402
      7 C           9.2060   -5.8500   24.5530 C.ar    1  UNL1        0.0309
      8 C           8.1750   -5.8090   23.6300 C.ar    1  UNL1        0.0172
      9 C           5.1710   -4.7480   22.7920 C.3     1  UNL1        0.1272
     10 C           5.0180   -4.3910   24.2700 C.2     1  UNL1        0.0151
     11 C           4.2580   -5.2240   24.9750 C.2     1  UNL1        0.1199
     12 C           4.7520   -6.2190   22.6280 C.3     1  UNL1        0.1805
     13 F          10.6620   -4.7250   25.9970 F       1  UNL1       -0.2042
     14 N           6.5410   -4.5530   22.3140 N.am    1  UNL1       -0.2545
     15 O           6.0130   -4.7740   20.1110 O.2     1  UNL1       -0.2745
     16 O           2.7120   -7.1360   24.0610 O.2     1  UNL1       -0.1685
     17 O           4.9760   -7.7400   24.7960 O.2     1  UNL1       -0.1685
     18 S           4.0980   -6.7750   24.1880 S.O2    1  UNL1        0.0116
@<TRIPOS>BOND
     1     2     1    1
     2     4     3   ar
     3     5     4   ar
     4     6     5   ar
     5     7     6   ar
     6     8     7   ar
     7     8     3   ar
     8    10     9    1
     9    11    10    2
    10    12     9    1
    11    13     6    1
    12     9    14    1
    13    14     1   am
    14    14     3    1
    15    15     1    2
    16    18    17    2
    17    18    16    2
    18    18    12    1
    19    18    11    1
