@<TRIPOS>MOLECULE
*****
 16 16 0 0 0
SMALL
GASTEIGER

@<TRIPOS>ATOM
      1 O           9.7440    1.0290   21.1050 O.2     1  UNL1       -0.2704
      2 C           9.1850    0.0580   21.6080 C.2     1  UNL1        0.2729
      3 C           9.8340   -0.7040   22.7590 C.3     1  UNL1        0.1984
      4 O          10.9290    0.0530   23.3030 O.3     1  UNL1       -0.2930
      5 C          10.6210    0.8340   24.3560 C.3     1  UNL1        0.4502
      6 F          10.9250    0.1050   25.4360 F       1  UNL1       -0.1663
      7 F          11.4400    1.8980   24.2040 F       1  UNL1       -0.1663
      8 C          10.4230   -2.0240   22.3150 C.3     1  UNL1        0.0423
      9 N           7.9580   -0.3890   21.2480 N.am    1  UNL1       -0.1759
     10 C           7.1560    0.0850   20.1820 C.ar    1  UNL1        0.0886
     11 C           5.9210    0.7010   20.4550 C.ar    1  UNL1       -0.0034
     12 C           5.4370    0.9330   21.8630 C.3     1  UNL1        0.0325
     13 C           5.1470    1.0940   19.3670 C.ar    1  UNL1        0.0177
     14 C           5.6100    0.8700   18.0850 C.ar    1  UNL1        0.0987
     15 N           6.7890    0.3060   17.8120 N.ar    1  UNL1       -0.2410
     16 C           7.5410   -0.0770   18.8490 C.ar    1  UNL1        0.1151
@<TRIPOS>BOND
     1     2     1    2
     2     3     2    1
     3     4     3    1
     4     5     4    1
     5     5     6    1
     6     7     5    1
     7     3     8    1
     8     9     2   am
     9    10     9    1
    10    11    10   ar
    11    12    11    1
    12    13    11   ar
    13    14    13   ar
    14    15    14   ar
    15    16    15   ar
    16    16    10   ar
