@<TRIPOS>MOLECULE
*****
 23 25 0 0 0
SMALL
GASTEIGER

@<TRIPOS>ATOM
      1 O           8.7390    0.9040   20.8200 O.2     1  UNL1       -0.2726
      2 C           8.2720   -0.2100   21.0620 C.2     1  UNL1        0.2500
      3 C           8.9750   -1.2040   21.9670 C.3     1  UNL1        0.1135
      4 C          10.1910   -0.6380   22.6650 C.ar    1  UNL1       -0.0125
      5 C          11.4620   -1.1030   22.3510 C.ar    1  UNL1        0.0076
      6 C          12.5590   -0.5470   22.9750 C.ar    1  UNL1        0.0571
      7 CL         14.1370   -1.2150   22.6620 Cl      1  UNL1       -0.0823
      8 C          12.4290    0.4720   23.9020 C.ar    1  UNL1        0.0071
      9 C          10.0530    0.3630   23.6220 C.ar    1  UNL1       -0.0080
     10 C          11.1610    0.9190   24.2560 C.ar    1  UNL1       -0.0216
     11 C          10.9790    1.8810   25.4150 C.3     1  UNL1        0.0264
     12 C          10.9650    3.3570   25.0740 C.3     1  UNL1        0.0050
     13 N           7.1090   -0.6580   20.5460 N.am    1  UNL1       -0.1773
     14 C           6.3030   -0.0260   19.5840 C.ar    1  UNL1        0.0925
     15 C           5.2590    0.8430   20.0290 C.ar    1  UNL1        0.0184
     16 C           4.8440    0.9550   21.3820 C.ar    1  UNL1        0.0014
     17 C           3.8370    1.8070   21.7400 C.ar    1  UNL1        0.0000
     18 C           3.1960    2.5870   20.7860 C.ar    1  UNL1        0.0001
     19 C           3.5610    2.5140   19.4710 C.ar    1  UNL1        0.0016
     20 C           4.5960    1.6390   19.0550 C.ar    1  UNL1        0.0204
     21 C           5.0050    1.5040   17.7070 C.ar    1  UNL1        0.0989
     22 N           5.9560    0.6780   17.2930 N.ar    1  UNL1       -0.2410
     23 C           6.5750   -0.0650   18.2170 C.ar    1  UNL1        0.1154
@<TRIPOS>BOND
     1     2     1    2
     2     3     2    1
     3     4     3    1
     4     5     4   ar
     5     6     5   ar
     6     7     6    1
     7     8     6   ar
     8     9     4   ar
     9    10     9   ar
    10    10     8   ar
    11    11    10    1
    12    12    11    1
    13    13     2   am
    14    14    13    1
    15    15    14   ar
    16    16    15   ar
    17    17    16   ar
    18    18    17   ar
    19    19    18   ar
    20    20    19   ar
    21    20    15   ar
    22    21    20   ar
    23    22    21   ar
    24    23    22   ar
    25    23    14   ar
