
     RDKit          3D

 23 25  0  0  0  0  0  0  0  0999 V2000
    8.7390    0.9040   20.8200 O   0  0  0  0  0  0  0  0  0  0  0  0
    8.2720   -0.2100   21.0620 C   0  0  0  0  0  0  0  0  0  0  0  0
    8.9750   -1.2040   21.9670 C   0  0  0  0  0  0  0  0  0  0  0  0
   10.1910   -0.6380   22.6650 C   0  0  0  0  0  0  0  0  0  0  0  0
   11.4620   -1.1030   22.3510 C   0  0  0  0  0  0  0  0  0  0  0  0
   12.5590   -0.5470   22.9750 C   0  0  0  0  0  0  0  0  0  0  0  0
   14.1370   -1.2150   22.6620 Cl  0  0  0  0  0  0  0  0  0  0  0  0
   12.4290    0.4720   23.9020 C   0  0  0  0  0  0  0  0  0  0  0  0
   10.0530    0.3630   23.6220 C   0  0  0  0  0  0  0  0  0  0  0  0
   11.1610    0.9190   24.2560 C   0  0  0  0  0  0  0  0  0  0  0  0
   10.9790    1.8810   25.4150 C   0  0  0  0  0  0  0  0  0  0  0  0
   10.9650    3.3570   25.0740 C   0  0  0  0  0  0  0  0  0  0  0  0
    7.1090   -0.6580   20.5460 N   0  0  0  0  0  0  0  0  0  0  0  0
    6.3030   -0.0260   19.5840 C   0  0  0  0  0  0  0  0  0  0  0  0
    5.2590    0.8430   20.0290 C   0  0  0  0  0  0  0  0  0  0  0  0
    4.8440    0.9550   21.3820 C   0  0  0  0  0  0  0  0  0  0  0  0
    3.8370    1.8070   21.7400 C   0  0  0  0  0  0  0  0  0  0  0  0
    3.1960    2.5870   20.7860 C   0  0  0  0  0  0  0  0  0  0  0  0
    3.5610    2.5140   19.4710 C   0  0  0  0  0  0  0  0  0  0  0  0
    4.5960    1.6390   19.0550 C   0  0  0  0  0  0  0  0  0  0  0  0
    5.0050    1.5040   17.7070 C   0  0  0  0  0  0  0  0  0  0  0  0
    5.9560    0.6780   17.2930 N   0  0  0  0  0  0  0  0  0  0  0  0
    6.5750   -0.0650   18.2170 C   0  0  0  0  0  0  0  0  0  0  0  0
  2  1  2  0
  3  2  1  0
  4  3  1  0
  5  4  2  0
  6  5  1  0
  7  6  1  0
  8  6  2  0
  9  4  1  0
 10  9  2  0
 10  8  1  0
 11 10  1  0
 12 11  1  0
 13  2  1  0
 14 13  1  0
 15 14  1  0
 16 15  2  0
 17 16  1  0
 18 17  2  0
 19 18  1  0
 20 19  2  0
 20 15  1  0
 21 20  1  0
 22 21  2  0
 23 22  1  0
 23 14  2  0
M  END
