@<TRIPOS>MOLECULE
*****
 22 24 0 0 0
SMALL
GASTEIGER

@<TRIPOS>ATOM
      1 F          13.5420    0.5140   23.1830 F       1  UNL1       -0.2373
      2 C          12.3510   -0.0860   23.4640 C.3     1  UNL1        0.1610
      3 C          12.1030   -1.3270   22.9320 C.3     1  UNL1        0.0353
      4 C          10.9430   -1.9800   23.3070 C.3     1  UNL1        0.0054
      5 C          11.4900    0.5440   24.3220 C.3     1  UNL1        0.0353
      6 C          10.3170   -0.1040   24.6660 C.3     1  UNL1        0.0054
      7 C          10.0230   -1.3670   24.1560 C.3     1  UNL1        0.0320
      8 C           8.6920   -1.9810   24.4250 C.3     1  UNL1        0.1664
      9 O           8.1600   -1.8450   25.5280 O.3     1  UNL1       -0.2217
     10 C           7.9730   -2.6980   23.3290 C.3     1  UNL1        0.0881
     11 C           7.8540   -2.3780   21.9560 C.3     1  UNL1        0.0209
     12 C           8.3630   -1.1560   21.2460 C.3     1  UNL1        0.0016
     13 N           7.2680   -3.8820   23.5680 N.3     1  UNL1       -0.2729
     14 C           7.0120   -4.5290   24.7660 C.3     1  UNL1        0.0721
     15 C           6.2160   -5.6190   24.7840 C.3     1  UNL1        0.0174
     16 C           5.6620   -6.1200   23.5810 C.3     1  UNL1        0.0028
     17 C           5.9120   -5.5100   22.3940 C.3     1  UNL1        0.0161
     18 C           6.7220   -4.3450   22.3660 C.3     1  UNL1        0.0600
     19 C           7.0770   -3.4370   21.3530 C.3     1  UNL1        0.0464
     20 C           6.6960   -3.5800   19.9350 C.3     1  UNL1        0.1534
     21 O           5.9060   -4.4550   19.6220 O.3     1  UNL1       -0.2231
     22 C           7.2690   -2.6490   18.8900 C.3     1  UNL1        0.0355
@<TRIPOS>BOND
     1     2     1    1
     2     3     2    1
     3     4     3    1
     4     5     2    1
     5     6     5    1
     6     7     6    1
     7     7     4    1
     8     8     7    1
     9     8     9    1
    10    10     8    1
    11    11    10    1
    12    11    12    1
    13    13    10    1
    14    14    13    1
    15    15    14    1
    16    16    15    1
    17    17    16    1
    18    18    17    1
    19    18    13    1
    20    19    18    1
    21    19    11    1
    22    20    19    1
    23    21    20    1
    24    22    20    1
