@<TRIPOS>MOLECULE
*****
 20 21 0 0 0
SMALL
GASTEIGER

@<TRIPOS>ATOM
      1 C           8.2470   -3.1070   20.4170 C.3     1  UNL1        0.0542
      2 C           8.1830   -1.6960   20.9730 C.3     1  UNL1        0.2128
      3 O           7.3100   -0.9260   20.6010 O.3     1  UNL1       -0.2050
      4 N           9.0900   -1.3520   21.9240 N.3     1  UNL1       -0.2458
      5 C           8.7310   -0.2470   22.8300 C.3     1  UNL1        0.1085
      6 C           8.6720    1.1300   22.1680 C.3     1  UNL1        0.2562
      7 O           9.4450    1.4360   21.2640 O.3     1  UNL1       -0.2007
      8 N           7.6590    1.9160   22.5760 N.3     1  UNL1       -0.0953
      9 N           7.8320    3.2840   22.7540 N.3     1  UNL1       -0.0967
     10 C           8.8590    4.0520   23.1480 C.3     1  UNL1        0.2420
     11 O           8.9480    5.2410   22.8330 O.3     1  UNL1       -0.2022
     12 C           9.9000    3.3670   23.9780 C.3     1  UNL1        0.0570
     13 C          10.3520   -2.0950   22.0560 C.3     1  UNL1        0.0744
     14 C          11.4340   -1.2240   22.6320 C.3     1  UNL1        0.0161
     15 C          12.7370   -1.2590   22.1400 C.3     1  UNL1        0.0014
     16 C          13.6770   -0.3420   22.5820 C.3     1  UNL1        0.0000
     17 C          13.3370    0.5850   23.5410 C.3     1  UNL1        0.0000
     18 C          12.0560    0.6100   24.0660 C.3     1  UNL1        0.0001
     19 C          11.0880   -0.2810   23.6090 C.3     1  UNL1        0.0028
     20 C           9.6510   -0.2180   24.0570 C.3     1  UNL1        0.0202
@<TRIPOS>BOND
     1     2     1    1
     2     3     2    1
     3     4     2    1
     4     5     4    1
     5     6     5    1
     6     6     7    1
     7     8     6    1
     8     9     8    1
     9    10     9    1
    10    11    10    1
    11    12    10    1
    12    13     4    1
    13    14    13    1
    14    15    14    1
    15    16    15    1
    16    17    16    1
    17    18    17    1
    18    19    18    1
    19    19    14    1
    20     5    20    1
    21    20    19    1
