@<TRIPOS>MOLECULE
*****
 30 34 0 0 0
SMALL
GASTEIGER

@<TRIPOS>ATOM
      1 O           7.1200    2.4200   25.4550 O.2     1  UNL1       -0.1573
      2 S           6.8760    1.0210   25.2550 S.O2    1  UNL1        0.0424
      3 O           5.6330    0.6030   24.6760 O.2     1  UNL1       -0.1573
      4 C           7.0150    0.2190   26.8430 C.3     1  UNL1        0.1460
      5 C           6.0340   -0.8560   27.1970 C.3     1  UNL1        0.0270
      6 C           5.9770    0.4570   27.8960 C.3     1  UNL1        0.0270
      7 N           8.1330    0.3660   24.4260 N.3     1  UNL1       -0.1542
      8 C           9.4870    0.6980   24.8940 C.3     1  UNL1        0.1214
      9 C           7.9750   -1.0020   23.9010 C.3     1  UNL1        0.1093
     10 C           8.8100   -1.1010   22.6240 C.3     1  UNL1        0.1182
     11 C          10.2490   -0.7210   22.9090 C.ar    1  UNL1       -0.0142
     12 C          10.5490    0.1770   23.9460 C.ar    1  UNL1       -0.0079
     13 C          11.8770    0.5500   24.1560 C.ar    1  UNL1       -0.0023
     14 C          12.8980    0.0260   23.3850 C.ar    1  UNL1        0.0111
     15 C          11.2850   -1.2590   22.1440 C.ar    1  UNL1        0.0074
     16 C          12.5890   -0.8790   22.3950 C.ar    1  UNL1        0.0574
     17 CL         13.8690   -1.5510   21.4190 Cl      1  UNL1       -0.0823
     18 C           8.2780   -0.1750   21.5270 C.2     1  UNL1        0.2507
     19 O           8.8730    0.8480   21.1870 O.2     1  UNL1       -0.2726
     20 N           7.1220   -0.5900   20.9530 N.am    1  UNL1       -0.1773
     21 C           6.4300    0.0040   19.8770 C.ar    1  UNL1        0.0925
     22 C           5.3260    0.8720   20.1580 C.ar    1  UNL1        0.0184
     23 C           4.8130    1.1010   21.4620 C.ar    1  UNL1        0.0014
     24 C           3.7670    1.9560   21.6650 C.ar    1  UNL1        0.0000
     25 C           3.1820    2.6240   20.5980 C.ar    1  UNL1        0.0001
     26 C           3.6360    2.4330   19.3240 C.ar    1  UNL1        0.0016
     27 C           4.7140    1.5510   19.0670 C.ar    1  UNL1        0.0204
     28 C           5.2220    1.3060   17.7720 C.ar    1  UNL1        0.0989
     29 N           6.2360    0.4940   17.5100 N.ar    1  UNL1       -0.2410
     30 C           6.8130   -0.1320   18.5430 C.ar    1  UNL1        0.1154
@<TRIPOS>BOND
     1     2     1    2
     2     3     2    2
     3     4     2    1
     4     4     5    1
     5     6     5    1
     6     6     4    1
     7     2     7    1
     8     8     7    1
     9     9     7    1
    10    10     9    1
    11    11    10    1
    12    12    11   ar
    13    12     8    1
    14    13    12   ar
    15    14    13   ar
    16    15    11   ar
    17    16    15   ar
    18    16    14   ar
    19    17    16    1
    20    10    18    1
    21    19    18    2
    22    20    18   am
    23    21    20    1
    24    22    21   ar
    25    23    22   ar
    26    24    23   ar
    27    25    24   ar
    28    26    25   ar
    29    27    26   ar
    30    27    22   ar
    31    28    27   ar
    32    29    28   ar
    33    30    29   ar
    34    30    21   ar
