@<TRIPOS>MOLECULE
*****
 29 32 0 0 0
SMALL
GASTEIGER

@<TRIPOS>ATOM
      1 O           9.0870    1.1300   21.0700 O.2     1  UNL1       -0.2727
      2 C           8.5860    0.1000   21.5030 C.2     1  UNL1        0.2492
      3 C           9.1210   -0.5450   22.7980 C.3     1  UNL1        0.1046
      4 C          10.6110   -0.2320   22.9290 C.ar    1  UNL1        0.0209
      5 C          11.5420   -0.8970   22.1360 C.ar    1  UNL1        0.0106
      6 C          12.8640   -0.4990   22.1640 C.ar    1  UNL1        0.0576
      7 CL         14.0080   -1.3030   21.1270 Cl      1  UNL1       -0.0823
      8 C          13.2960    0.5400   22.9590 C.ar    1  UNL1        0.0145
      9 C          12.3860    1.1890   23.7720 C.ar    1  UNL1        0.0374
     10 C          11.0630    0.7820   23.7750 C.ar    1  UNL1        0.1350
     11 O          10.3050    1.2850   24.8050 O.3     1  UNL1       -0.4757
     12 C           9.0910    0.5600   25.0930 C.3     1  UNL1        0.2062
     13 C           8.2860    0.2180   23.8560 C.3     1  UNL1        0.0607
     14 C           8.9400   -2.0870   22.8450 C.3     1  UNL1        0.0998
     15 C           7.5830   -2.5530   23.3320 C.2     1  UNL1        0.2422
     16 O           6.6170   -2.6160   22.5770 O.2     1  UNL1       -0.2733
     17 N           7.5300   -2.9650   24.5940 N.am    1  UNL1       -0.2035
     18 C           6.3510   -3.5970   25.1550 C.3     1  UNL1        0.1385
     19 N           7.5060   -0.4750   20.9310 N.am    1  UNL1       -0.1774
     20 C           6.7280    0.0310   19.8690 C.ar    1  UNL1        0.0925
     21 C           5.5020    0.6960   20.1840 C.ar    1  UNL1        0.0184
     22 C           4.9840    0.8160   21.5010 C.ar    1  UNL1        0.0014
     23 C           3.7970    1.4490   21.7330 C.ar    1  UNL1        0.0000
     24 C           3.0720    2.0020   20.6870 C.ar    1  UNL1        0.0001
     25 C           3.5280    1.9130   19.4010 C.ar    1  UNL1        0.0016
     26 C           4.7470    1.2500   19.1120 C.ar    1  UNL1        0.0204
     27 C           5.2520    1.0900   17.7990 C.ar    1  UNL1        0.0989
     28 N           6.3860    0.4640   17.5080 N.ar    1  UNL1       -0.2410
     29 C           7.0940   -0.0420   18.5250 C.ar    1  UNL1        0.1154
@<TRIPOS>BOND
     1     2     1    2
     2     3     2    1
     3     4     3    1
     4     5     4   ar
     5     6     5   ar
     6     7     6    1
     7     8     6   ar
     8     9     8   ar
     9    10     4   ar
    10    10     9   ar
    11    11    10    1
    12    12    11    1
    13    13    12    1
    14    13     3    1
    15     3    14    1
    16    15    14    1
    17    16    15    2
    18    17    15   am
    19    18    17    1
    20    19     2   am
    21    20    19    1
    22    21    20   ar
    23    22    21   ar
    24    23    22   ar
    25    24    23   ar
    26    25    24   ar
    27    26    25   ar
    28    26    21   ar
    29    27    26   ar
    30    28    27   ar
    31    29    28   ar
    32    29    20   ar
