
     RDKit          3D

 21 23  0  0  0  0  0  0  0  0999 V2000
    9.3350    0.9970   21.1780 O   0  0  0  0  0  0  0  0  0  0  0  0
    8.8510   -0.0600   21.5870 C   0  0  0  0  0  0  0  0  0  0  0  0
    9.5160   -0.8770   22.6790 C   0  0  0  0  0  0  0  0  0  0  0  0
   10.9780   -0.5340   22.8540 C   0  0  0  0  0  0  0  0  0  0  0  0
   11.3810    0.4540   23.7460 C   0  0  0  0  0  0  0  0  0  0  0  0
   12.7170    0.8190   23.8510 C   0  0  0  0  0  0  0  0  0  0  0  0
   13.6750    0.1980   23.0650 C   0  0  0  0  0  0  0  0  0  0  0  0
   11.9440   -1.1760   22.0850 C   0  0  0  0  0  0  0  0  0  0  0  0
   13.2570   -0.7880   22.2080 C   0  0  0  0  0  0  0  0  0  0  0  0
   14.1820   -1.4000   21.4180 F   0  0  0  0  0  0  0  0  0  0  0  0
    7.7060   -0.5880   21.1040 N   0  0  0  0  0  0  0  0  0  0  0  0
    6.9280   -0.0970   20.0380 C   0  0  0  0  0  0  0  0  0  0  0  0
    5.7760    0.6910   20.3400 C   0  0  0  0  0  0  0  0  0  0  0  0
    5.3370    0.9750   21.6610 C   0  0  0  0  0  0  0  0  0  0  0  0
    4.2480    1.7710   21.8830 C   0  0  0  0  0  0  0  0  0  0  0  0
    3.5390    2.3130   20.8210 C   0  0  0  0  0  0  0  0  0  0  0  0
    3.9220    2.0690   19.5320 C   0  0  0  0  0  0  0  0  0  0  0  0
    5.0510    1.2590   19.2550 C   0  0  0  0  0  0  0  0  0  0  0  0
    5.5230    1.0110   17.9420 C   0  0  0  0  0  0  0  0  0  0  0  0
    6.5980    0.2840   17.6620 N   0  0  0  0  0  0  0  0  0  0  0  0
    7.2700   -0.2510   18.6930 C   0  0  0  0  0  0  0  0  0  0  0  0
  2  1  2  0
  3  2  1  0
  4  3  1  0
  5  4  2  0
  6  5  1  0
  7  6  2  0
  8  4  1  0
  9  8  2  0
  9  7  1  0
 10  9  1  0
 11  2  1  0
 12 11  1  0
 13 12  1  0
 14 13  2  0
 15 14  1  0
 16 15  2  0
 17 16  1  0
 18 17  2  0
 18 13  1  0
 19 18  1  0
 20 19  2  0
 21 20  1  0
 21 12  2  0
M  END
