@<TRIPOS>MOLECULE
*****
 21 23 0 0 0
SMALL
GASTEIGER

@<TRIPOS>ATOM
      1 O           9.3350    0.9970   21.1780 O.2     1  UNL1       -0.2726
      2 C           8.8510   -0.0600   21.5870 C.2     1  UNL1        0.2500
      3 C           9.5160   -0.8770   22.6790 C.3     1  UNL1        0.1135
      4 C          10.9780   -0.5340   22.8540 C.ar    1  UNL1       -0.0108
      5 C          11.3810    0.4540   23.7460 C.ar    1  UNL1       -0.0036
      6 C          12.7170    0.8190   23.8510 C.ar    1  UNL1        0.0020
      7 C          13.6750    0.1980   23.0650 C.ar    1  UNL1        0.0296
      8 C          11.9440   -1.1760   22.0850 C.ar    1  UNL1        0.0259
      9 C          13.2570   -0.7880   22.2080 C.ar    1  UNL1        0.1398
     10 F          14.1820   -1.4000   21.4180 F       1  UNL1       -0.2042
     11 N           7.7060   -0.5880   21.1040 N.am    1  UNL1       -0.1773
     12 C           6.9280   -0.0970   20.0380 C.ar    1  UNL1        0.0925
     13 C           5.7760    0.6910   20.3400 C.ar    1  UNL1        0.0184
     14 C           5.3370    0.9750   21.6610 C.ar    1  UNL1        0.0014
     15 C           4.2480    1.7710   21.8830 C.ar    1  UNL1        0.0000
     16 C           3.5390    2.3130   20.8210 C.ar    1  UNL1        0.0001
     17 C           3.9220    2.0690   19.5320 C.ar    1  UNL1        0.0016
     18 C           5.0510    1.2590   19.2550 C.ar    1  UNL1        0.0204
     19 C           5.5230    1.0110   17.9420 C.ar    1  UNL1        0.0989
     20 N           6.5980    0.2840   17.6620 N.ar    1  UNL1       -0.2410
     21 C           7.2700   -0.2510   18.6930 C.ar    1  UNL1        0.1154
@<TRIPOS>BOND
     1     2     1    2
     2     3     2    1
     3     4     3    1
     4     5     4   ar
     5     6     5   ar
     6     7     6   ar
     7     8     4   ar
     8     9     8   ar
     9     9     7   ar
    10    10     9    1
    11    11     2   am
    12    12    11    1
    13    13    12   ar
    14    14    13   ar
    15    15    14   ar
    16    16    15   ar
    17    17    16   ar
    18    18    17   ar
    19    18    13   ar
    20    19    18   ar
    21    20    19   ar
    22    21    20   ar
    23    21    12   ar
