@<TRIPOS>MOLECULE
*****
 17 18 0 0 0
SMALL
GASTEIGER

@<TRIPOS>ATOM
      1 N           6.7960   -2.6770   21.0310 N.am    1  UNL1       -0.2767
      2 C           7.1160   -2.6480   18.5950 C.3     1  UNL1        0.0948
      3 O           5.8040   -4.2490   19.7330 O.2     1  UNL1       -0.2749
      4 C           6.5140   -3.2550   19.8370 C.2     1  UNL1        0.2262
      5 C          11.8110   -1.8090   22.8830 C.ar    1  UNL1        0.0085
      6 C           8.7800   -1.6810   21.9920 C.3     1  UNL1        0.0942
      7 C           7.4960   -1.4150   21.2420 C.3     1  UNL1        0.1107
      8 C           6.4560   -3.2870   22.3170 C.3     1  UNL1        0.1107
      9 C           7.7140   -3.5310   23.1180 C.3     1  UNL1        0.0942
     10 C           9.7330   -2.6050   24.0320 C.3     1  UNL1        0.0993
     11 C          10.8360   -1.5940   23.8410 C.ar    1  UNL1       -0.0053
     12 C          10.8990   -0.4420   24.6070 C.ar    1  UNL1       -0.0029
     13 C          11.9180    0.4750   24.4140 C.ar    1  UNL1        0.0006
     14 C          12.8930    0.2540   23.4610 C.ar    1  UNL1        0.0114
     15 C          12.8210   -0.8910   22.7010 C.ar    1  UNL1        0.0574
     16 N           8.5030   -2.3080   23.2880 N.3     1  UNL1       -0.2660
     17 CL         14.0260   -1.2110   21.4870 Cl      1  UNL1       -0.0823
@<TRIPOS>BOND
     1     4     3    2
     2     4     2    1
     3     4     1   am
     4     7     1    1
     5     7     6    1
     6     8     1    1
     7     9     8    1
     8    11    10    1
     9    11     5   ar
    10    12    11   ar
    11    13    12   ar
    12    14    13   ar
    13    15    14   ar
    14    15     5   ar
    15    16    10    1
    16    16     9    1
    17    16     6    1
    18    17    15    1
