@<TRIPOS>MOLECULE
*****
 18 19 0 0 0
SMALL
GASTEIGER

@<TRIPOS>ATOM
      1 C           9.8980    0.3570   24.2570 C.ar    1  UNL1       -0.0038
      2 N           6.4970    0.4400   17.3880 N.ar    1  UNL1       -0.2410
      3 C          12.1430   -0.6370   23.0230 C.ar    1  UNL1        0.0298
      4 C           5.3690    0.7790   19.9390 C.ar    1  UNL1       -0.0034
      5 C          12.2810    0.3850   23.9450 C.ar    1  UNL1        0.0058
      6 C           4.7930    1.0260   21.3100 C.3     1  UNL1        0.0325
      7 C           9.7610   -0.6330   23.2930 C.ar    1  UNL1       -0.0126
      8 C           4.8650    1.4420   18.8260 C.ar    1  UNL1        0.0177
      9 C           8.1440   -0.3430   21.4620 C.2     1  UNL1        0.2500
     10 N           7.0270   -0.7490   20.8360 N.am    1  UNL1       -0.1777
     11 O           8.8740    0.5560   21.0420 O.2     1  UNL1       -0.2726
     12 C           6.4580   -0.0830   19.7340 C.ar    1  UNL1        0.0885
     13 C           8.4030   -1.0420   22.7810 C.3     1  UNL1        0.1135
     14 C           6.9790   -0.2190   18.4460 C.ar    1  UNL1        0.1151
     15 C          11.1460    0.8710   24.5750 C.ar    1  UNL1        0.0001
     16 C          10.9040   -1.1410   22.6930 C.ar    1  UNL1        0.0020
     17 C           5.4550    1.2540   17.5930 C.ar    1  UNL1        0.0987
     18 I          13.8400   -1.5310   22.1970 I       1  UNL1       -0.0425
@<TRIPOS>BOND
     1     5     3   ar
     2     6     4    1
     3     7     1   ar
     4     8     4   ar
     5    10     9   am
     6    11     9    2
     7    12     4   ar
     8    12    10    1
     9    13     9    1
    10    13     7    1
    11    14    12   ar
    12    14     2   ar
    13    15     1   ar
    14    15     5   ar
    15    16     7   ar
    16    16     3   ar
    17    17     8   ar
    18    17     2   ar
    19    18     3    1
