@<TRIPOS>MOLECULE
*****
 16 17 0 0 0
SMALL
GASTEIGER

@<TRIPOS>ATOM
      1 O           9.5850    1.0480   21.1080 O.2     1  UNL1       -0.2730
      2 C           9.1510   -0.0100   21.5530 C.2     1  UNL1        0.2451
      3 C           9.8750   -0.7590   22.6450 C.3     1  UNL1        0.0786
      4 C          11.3200   -1.0230   22.1870 C.3     1  UNL1        0.0091
      5 C          12.2770   -1.5910   23.2310 C.3     1  UNL1        0.0005
      6 C          13.6980   -1.8260   22.8550 C.3     1  UNL1        0.0000
      7 C          13.3530   -0.7160   23.7880 C.3     1  UNL1        0.0000
      8 C           9.8290    0.0950   23.9130 C.3     1  UNL1        0.0096
      9 N           8.0180   -0.6040   21.1220 N.am    1  UNL1       -0.1780
     10 C           7.1730   -0.0880   20.1130 C.ar    1  UNL1        0.0885
     11 C           5.9510    0.5130   20.4640 C.ar    1  UNL1       -0.0034
     12 C           5.5100    0.6510   21.9000 C.3     1  UNL1        0.0325
     13 C           5.1760    1.0350   19.4360 C.ar    1  UNL1        0.0177
     14 C           5.6260    0.9530   18.1330 C.ar    1  UNL1        0.0987
     15 N           6.7890    0.3910   17.7870 N.ar    1  UNL1       -0.2410
     16 C           7.5390   -0.1200   18.7660 C.ar    1  UNL1        0.1151
@<TRIPOS>BOND
     1     2     1    2
     2     3     2    1
     3     4     3    1
     4     5     4    1
     5     6     5    1
     6     7     6    1
     7     7     5    1
     8     3     8    1
     9     9     2   am
    10    10     9    1
    11    11    10   ar
    12    12    11    1
    13    13    11   ar
    14    14    13   ar
    15    15    14   ar
    16    16    15   ar
    17    16    10   ar
