@<TRIPOS>MOLECULE
*****
 13 14 0 0 0
SMALL
GASTEIGER

@<TRIPOS>ATOM
      1 F           6.6110   22.5580   -3.8210 F       1  UNL1       -0.2042
      2 C           6.4890   22.8030   -2.4880 C.ar    1  UNL1        0.1402
      3 C           5.5530   22.0850   -1.7740 C.ar    1  UNL1        0.0312
      4 C           5.4080   22.3420   -0.4210 C.ar    1  UNL1        0.0214
      5 C           7.3030   23.7670   -1.9390 C.ar    1  UNL1        0.0309
      6 C           7.1680   24.0290   -0.5780 C.ar    1  UNL1        0.0188
      7 C           6.2170   23.3070    0.1650 C.ar    1  UNL1        0.0812
      8 N           6.3090   23.7250    1.4700 N.ar    1  UNL1       -0.2441
      9 C           7.2850   24.6800    1.5630 C.ar    1  UNL1        0.0960
     10 C           7.8480   24.9000    0.3400 C.ar    1  UNL1        0.0159
     11 C           8.9970   25.8220    0.0130 C.3     1  UNL1        0.1166
     12 N          10.2740   25.2160    0.4080 N.3     1  UNL1       -0.2117
     13 C          10.4450   23.8640   -0.1260 C.3     1  UNL1        0.1079
@<TRIPOS>BOND
     1     2     1    1
     2     3     2   ar
     3     4     3   ar
     4     5     2   ar
     5     6     5   ar
     6     7     4   ar
     7     7     6   ar
     8     8     7   ar
     9     9     8   ar
    10    10     9   ar
    11    10     6   ar
    12    11    10    1
    13    12    11    1
    14    13    12    1
