@<TRIPOS>MOLECULE
*****
 21 23 0 0 0
SMALL
GASTEIGER

@<TRIPOS>ATOM
      1 O           8.9120    0.8090   21.0390 O.2     1  UNL1       -0.2726
      2 C           8.3560   -0.2410   21.3570 C.2     1  UNL1        0.2500
      3 C           8.8570   -1.0950   22.5050 C.3     1  UNL1        0.1135
      4 C          10.3120   -0.8020   22.7950 C.ar    1  UNL1       -0.0122
      5 C          10.6770    0.1510   23.7350 C.ar    1  UNL1       -0.0037
      6 C          12.0080    0.4960   23.9160 C.ar    1  UNL1        0.0006
      7 C          12.9970   -0.1080   23.1540 C.ar    1  UNL1        0.0114
      8 C          11.3080   -1.4360   22.0600 C.ar    1  UNL1        0.0076
      9 C          12.6270   -1.0760   22.2400 C.ar    1  UNL1        0.0574
     10 CL         13.8520   -1.8540   21.2670 Cl      1  UNL1       -0.0823
     11 N           7.2490   -0.7000   20.7500 N.am    1  UNL1       -0.1773
     12 C           6.5450   -0.0820   19.6950 C.ar    1  UNL1        0.0939
     13 C           5.3790    0.6810   20.0120 C.ar    1  UNL1        0.0361
     14 C           4.8510    0.8160   21.3150 C.ar    1  UNL1        0.0045
     15 C           3.7360    1.5750   21.5180 C.ar    1  UNL1        0.0207
     16 C           3.1420    2.2020   20.4260 C.ar    1  UNL1        0.0989
     17 N           3.5900    2.1230   19.1820 N.ar    1  UNL1       -0.2422
     18 C           4.7180    1.3640   18.9640 C.ar    1  UNL1        0.1017
     19 C           5.3080    1.2240   17.6660 C.ar    1  UNL1        0.1180
     20 N           6.3910    0.5240   17.3730 N.ar    1  UNL1       -0.2394
     21 C           6.9910   -0.1180   18.3790 C.ar    1  UNL1        0.1155
@<TRIPOS>BOND
     1     2     1    2
     2     3     2    1
     3     4     3    1
     4     5     4   ar
     5     6     5   ar
     6     7     6   ar
     7     8     4   ar
     8     9     8   ar
     9     9     7   ar
    10    10     9    1
    11    11     2   am
    12    12    11    1
    13    13    12   ar
    14    14    13   ar
    15    15    14   ar
    16    16    15   ar
    17    17    16   ar
    18    18    17   ar
    19    18    13   ar
    20    19    18   ar
    21    20    19   ar
    22    21    20   ar
    23    21    12   ar
