@<TRIPOS>MOLECULE
*****
 23 26 0 0 0
SMALL
GASTEIGER

@<TRIPOS>ATOM
      1 O           9.0210    1.1030   21.1050 O.2     1  UNL1       -0.2742
      2 C           8.5290    0.0020   21.2870 C.2     1  UNL1        0.2330
      3 C           9.2140   -1.2240   21.8650 C.3     1  UNL1        0.1010
      4 C          10.4620   -0.8530   22.6530 C.ar    1  UNL1       -0.0130
      5 C          10.3990   -0.1750   23.8630 C.ar    1  UNL1       -0.0038
      6 C          11.5590    0.1620   24.5450 C.ar    1  UNL1        0.0006
      7 C          12.7990   -0.1660   24.0190 C.ar    1  UNL1        0.0114
      8 C          11.7050   -1.1840   22.1280 C.ar    1  UNL1        0.0076
      9 C          12.8500   -0.8240   22.8070 C.ar    1  UNL1        0.0574
     10 CL         14.3940   -1.1440   22.0750 Cl      1  UNL1       -0.0823
     11 N           7.2480   -0.3700   21.0090 N.am    1  UNL1       -0.2569
     12 C           6.7960   -1.5010   21.8490 C.3     1  UNL1        0.0991
     13 C           8.0510   -1.8840   22.6420 C.3     1  UNL1        0.0354
     14 C           6.4530    0.1620   19.9420 C.ar    1  UNL1        0.0730
     15 C           5.3140    0.9980   20.1500 C.ar    1  UNL1        0.0167
     16 C           4.7810    1.3190   21.4270 C.ar    1  UNL1        0.0013
     17 C           3.6820    2.1200   21.5490 C.ar    1  UNL1        0.0000
     18 C           3.0590    2.6450   20.4250 C.ar    1  UNL1        0.0001
     19 C           3.5300    2.3670   19.1750 C.ar    1  UNL1        0.0016
     20 C           4.6670    1.5380   19.0000 C.ar    1  UNL1        0.0204
     21 C           5.1940    1.2070   17.7280 C.ar    1  UNL1        0.0989
     22 N           6.2440    0.4230   17.5390 N.ar    1  UNL1       -0.2410
     23 C           6.8410   -0.0800   18.6270 C.ar    1  UNL1        0.1137
@<TRIPOS>BOND
     1     2     1    2
     2     3     2    1
     3     3     4    1
     4     5     4   ar
     5     6     5   ar
     6     7     6   ar
     7     8     4   ar
     8     9     8   ar
     9     9     7   ar
    10    10     9    1
    11    11     2   am
    12    12    11    1
    13    13    12    1
    14    13     3    1
    15    14    11    1
    16    15    14   ar
    17    16    15   ar
    18    17    16   ar
    19    18    17   ar
    20    19    18   ar
    21    20    19   ar
    22    20    15   ar
    23    21    20   ar
    24    22    21   ar
    25    23    22   ar
    26    23    14   ar
