@<TRIPOS>MOLECULE
*****
 22 24 0 0 0
SMALL
GASTEIGER

@<TRIPOS>ATOM
      1 O           9.6800    0.8310   20.9380 O.2     1  UNL1       -0.2711
      2 C           9.0740   -0.1480   21.3610 C.2     1  UNL1        0.2676
      3 N           7.7540   -0.3430   21.1730 N.am    1  UNL1       -0.1765
      4 C           6.9630   -0.0260   20.0450 C.ar    1  UNL1        0.0886
      5 C           7.4930    0.0810   18.7570 C.ar    1  UNL1        0.1151
      6 N           6.8310    0.5930   17.7130 N.ar    1  UNL1       -0.2410
      7 C           5.5900    1.0300   17.9370 C.ar    1  UNL1        0.0987
      8 C           4.9730    0.9750   19.1710 C.ar    1  UNL1        0.0177
      9 C           5.6530    0.4360   20.2590 C.ar    1  UNL1       -0.0034
     10 C           5.0190    0.4260   21.6260 C.3     1  UNL1        0.0325
     11 C           9.7680   -1.1760   22.2350 C.3     1  UNL1        0.1988
     12 N           8.9660   -1.6160   23.3610 N.pl3   1  UNL1       -0.2276
     13 C           9.1940   -2.7650   24.0670 C.ar    1  UNL1        0.0688
     14 C           8.2730   -3.1720   25.0820 C.ar    1  UNL1        0.0325
     15 C           7.0810   -2.4670   25.3890 C.ar    1  UNL1        0.0028
     16 C           6.2300   -2.9220   26.3520 C.ar    1  UNL1        0.0001
     17 C           6.5150   -4.0840   27.0560 C.ar    1  UNL1        0.0015
     18 C           7.6530   -4.7950   26.7980 C.ar    1  UNL1        0.0191
     19 C           8.5560   -4.3610   25.8010 C.ar    1  UNL1        0.0825
     20 N           9.6620   -5.1290   25.5470 N.ar    1  UNL1       -0.2438
     21 C          10.4800   -4.7090   24.5980 C.ar    1  UNL1        0.1002
     22 C          10.2990   -3.5600   23.8470 C.ar    1  UNL1        0.0368
@<TRIPOS>BOND
     1     2     1    2
     2     3     2   am
     3     4     3    1
     4     5     4   ar
     5     6     5   ar
     6     7     6   ar
     7     8     7   ar
     8     9     8   ar
     9     9     4   ar
    10    10     9    1
    11    11     2    1
    12    12    11    1
    13    13    12    1
    14    14    13   ar
    15    15    14   ar
    16    16    15   ar
    17    17    16   ar
    18    18    17   ar
    19    19    18   ar
    20    19    14   ar
    21    20    19   ar
    22    21    20   ar
    23    22    21   ar
    24    22    13   ar
