@<TRIPOS>MOLECULE
*****
 24 27 0 0 0
SMALL
GASTEIGER

@<TRIPOS>ATOM
      1 O           8.9440    1.3610   21.0430 O.2     1  UNL1       -0.2724
      2 C           8.3910    0.2850   21.2570 C.2     1  UNL1        0.2555
      3 C           8.8120   -0.6420   22.3970 C.3     1  UNL1        0.1473
      4 C           8.2750   -0.0620   23.6980 C.3     1  UNL1        0.2189
      5 O           9.3490    0.7830   24.2020 O.3     1  UNL1       -0.4749
      6 C          10.3020   -0.5320   22.6170 C.ar    1  UNL1        0.0247
      7 C          10.5370    0.3230   23.6750 C.ar    1  UNL1        0.1352
      8 C          11.8160    0.6430   24.0930 C.ar    1  UNL1        0.0374
      9 C          12.8900    0.0880   23.4150 C.ar    1  UNL1        0.0145
     10 C          11.3780   -1.1010   21.9500 C.ar    1  UNL1        0.0107
     11 C          12.6570   -0.7750   22.3560 C.ar    1  UNL1        0.0576
     12 CL         14.0070   -1.4480   21.4930 Cl      1  UNL1       -0.0823
     13 N           7.4860   -0.2440   20.3980 N.am    1  UNL1       -0.1426
     14 C           6.7600    0.1960   19.3350 C.ar    1  UNL1        0.2484
     15 N           6.0190    1.3850   19.3350 N.ar    1  UNL1       -0.2582
     16 C           5.7880    1.6080   17.9990 C.ar    1  UNL1        0.2079
     17 N           6.2990    0.6670   17.2610 N.ar    1  UNL1       -0.1238
     18 N           6.9010   -0.2490   18.1010 N.ar    1  UNL1       -0.1104
     19 C           5.4380    2.1780   20.3900 C.ar    1  UNL1        0.0681
     20 C           4.0570    2.3630   20.4270 C.ar    1  UNL1        0.0177
     21 C           3.5080    3.2630   21.3310 C.ar    1  UNL1        0.0015
     22 C           4.3210    3.9690   22.1970 C.ar    1  UNL1        0.0001
     23 C           5.6900    3.7720   22.1730 C.ar    1  UNL1        0.0015
     24 C           6.2560    2.8760   21.2780 C.ar    1  UNL1        0.0177
@<TRIPOS>BOND
     1     2     1    2
     2     3     2    1
     3     4     3    1
     4     5     4    1
     5     6     3    1
     6     7     6   ar
     7     7     5    1
     8     8     7   ar
     9     9     8   ar
    10    10     6   ar
    11    11    10   ar
    12    11     9   ar
    13    12    11    1
    14    13     2   am
    15    14    13    1
    16    15    14   ar
    17    16    15   ar
    18    17    16   ar
    19    18    17   ar
    20    18    14   ar
    21    19    15    1
    22    20    19   ar
    23    21    20   ar
    24    22    21   ar
    25    23    22   ar
    26    24    19   ar
    27    24    23   ar
