@<TRIPOS>MOLECULE
*****
 19 20 0 0 0
SMALL
GASTEIGER

@<TRIPOS>ATOM
      1 N           7.4920   -0.5590   20.9080 N.am    1  UNL1       -0.1777
      2 N          12.4070    0.7870   23.7900 N.ar    1  UNL1       -0.2418
      3 C           9.1340   -0.8210   22.6840 C.3     1  UNL1        0.1023
      4 C          13.2920    0.1150   23.0420 C.ar    1  UNL1        0.1102
      5 C           5.1220    1.0180   21.5240 C.3     1  UNL1        0.0325
      6 C           8.5880   -0.0320   21.4910 C.2     1  UNL1        0.2493
      7 C           4.9430    1.3450   19.0350 C.ar    1  UNL1        0.0177
      8 C           5.4690    1.2080   17.7660 C.ar    1  UNL1        0.0987
      9 C           7.2450   -0.0120   18.5310 C.ar    1  UNL1        0.1151
     10 C          11.1120    0.4600   23.6740 C.ar    1  UNL1        0.0951
     11 C          11.5570   -1.2330   22.0800 C.ar    1  UNL1        0.0107
     12 C          10.6230   -0.5290   22.8300 C.ar    1  UNL1        0.0062
     13 C          12.8930   -0.9100   22.1880 C.ar    1  UNL1        0.0765
     14 C           8.3310   -0.5660   23.9600 C.3     1  UNL1        0.0144
     15 N           6.6090    0.5580   17.5030 N.ar    1  UNL1       -0.2410
     16 O           9.1230    0.9950   21.0970 O.2     1  UNL1       -0.2726
     17 C           5.6050    0.7750   20.1170 C.ar    1  UNL1       -0.0034
     18 C           6.7880    0.0550   19.8470 C.ar    1  UNL1        0.0885
     19 CL         14.0630   -1.8090   21.2600 Cl      1  UNL1       -0.0806
@<TRIPOS>BOND
     1     4     2   ar
     2     6     1   am
     3     6     3    1
     4     8     7   ar
     5    10     2   ar
     6    12     3    1
     7    12    11   ar
     8    12    10   ar
     9    13    11   ar
    10    13     4   ar
    11     3    14    1
    12    15     9   ar
    13    15     8   ar
    14    16     6    2
    15    17     7   ar
    16    17     5    1
    17    18    17   ar
    18    18     9   ar
    19    18     1    1
    20    19    13    1
