@<TRIPOS>MOLECULE
*****
 26 29 0 0 0
SMALL
GASTEIGER

@<TRIPOS>ATOM
      1 O           6.3940   -2.5710   20.9140 O.3     1  UNL1       -0.2036
      2 C           7.2230   -1.8270   21.4140 C.3     1  UNL1        0.2269
      3 C           8.1010   -2.2930   22.5850 C.3     1  UNL1        0.0662
      4 C           8.0710   -1.2550   23.6990 C.3     1  UNL1        0.0337
      5 C           6.8510   -0.7430   24.1250 C.3     1  UNL1        0.0188
      6 C           6.8260    0.2110   25.1210 C.3     1  UNL1        0.0801
      7 CL          5.2870    0.8170   25.6570 Cl      1  UNL1       -0.1150
      8 C           7.9780    0.6760   25.7180 C.3     1  UNL1        0.0187
      9 C           9.2000    0.1730   25.3120 C.3     1  UNL1        0.0308
     10 C           9.2420   -0.7860   24.3130 C.3     1  UNL1        0.1154
     11 O          10.4980   -1.2480   23.9930 O.3     1  UNL1       -0.3562
     12 C          10.5360   -2.4710   23.2280 C.3     1  UNL1        0.1422
     13 C           9.5540   -2.4190   22.0770 C.3     1  UNL1        0.0375
     14 C           7.6830   -3.6760   23.1110 C.3     1  UNL1        0.1133
     15 N           6.2530   -3.8340   23.3710 N.3     1  UNL1       -0.1312
     16 N           7.4180   -0.5750   20.9670 N.3     1  UNL1       -0.1892
     17 C           6.7230    0.0360   19.9050 C.3     1  UNL1        0.0926
     18 C           5.5410    0.7740   20.2060 C.3     1  UNL1        0.0189
     19 C           5.0000    0.9000   21.5110 C.3     1  UNL1        0.0015
     20 C           3.8500    1.6030   21.7280 C.3     1  UNL1        0.0000
     21 C           3.1880    2.2180   20.6770 C.3     1  UNL1        0.0000
     22 C           3.6720    2.1330   19.4030 C.3     1  UNL1        0.0015
     23 C           4.8580    1.4080   19.1320 C.3     1  UNL1        0.0188
     24 C           5.4040    1.2680   17.8330 C.3     1  UNL1        0.0887
     25 N           6.4990    0.5740   17.5540 N.3     1  UNL1       -0.2166
     26 C           7.1260   -0.0290   18.5700 C.3     1  UNL1        0.1061
@<TRIPOS>BOND
     1     2     1    1
     2     3     2    1
     3     4     3    1
     4     5     4    1
     5     6     5    1
     6     7     6    1
     7     8     6    1
     8     9     8    1
     9    10     9    1
    10    10     4    1
    11    11    10    1
    12    12    11    1
    13    13    12    1
    14    13     3    1
    15     3    14    1
    16    15    14    1
    17    16     2    1
    18    17    16    1
    19    18    17    1
    20    19    18    1
    21    20    19    1
    22    21    20    1
    23    22    21    1
    24    23    22    1
    25    23    18    1
    26    24    23    1
    27    25    24    1
    28    26    25    1
    29    26    17    1
