@<TRIPOS>MOLECULE
*****
 49 51 0 0 0
SMALL
GASTEIGER

@<TRIPOS>ATOM
      1 C         -18.7740   11.5290   37.4150 C.3     1  UNL1        0.0559
      2 C         -19.8910   11.8030   38.2350 C.3     1  UNL1        0.1410
      3 C         -20.2120   13.0080   39.0830 C.3     1  UNL1        0.0343
      4 O         -20.7590   10.7990   38.2540 O.3     1  UNL1       -0.2687
      5 N         -20.2070    9.7920   37.3860 N.3     1  UNL1       -0.0810
      6 C         -18.9980   10.2250   36.9040 C.3     1  UNL1        0.1526
      7 C         -18.2600    9.3640   35.9080 C.3     1  UNL1        0.2442
      8 O         -17.3970    9.7930   35.1670 O.3     1  UNL1       -0.2020
      9 N         -18.6410    8.0920   35.7380 N.3     1  UNL1       -0.1853
     10 C         -18.0400    7.2890   34.6990 C.3     1  UNL1        0.1226
     11 C         -18.9490    7.4370   33.4880 C.3     1  UNL1        0.2417
     12 O         -20.0660    7.9580   33.5620 O.3     1  UNL1       -0.2021
     13 C         -17.9420    5.8750   35.1900 C.3     1  UNL1        0.0232
     14 N         -18.5210    7.0220   32.3070 N.3     1  UNL1       -0.1854
     15 C         -19.4040    7.2140   31.1660 C.3     1  UNL1        0.1225
     16 C         -19.6500    5.9170   30.4440 C.3     1  UNL1        0.2417
     17 O         -18.6830    5.2160   30.0510 O.3     1  UNL1       -0.2021
     18 C         -18.6570    8.2620   30.3040 C.3     1  UNL1        0.0201
     19 C         -18.9400    8.1470   28.7960 C.3     1  UNL1        0.0016
     20 C         -18.9730    9.6790   30.7810 C.3     1  UNL1        0.0016
     21 N         -20.9190    5.5660   30.2590 N.3     1  UNL1       -0.1854
     22 C         -21.1770    4.3560   29.5210 C.3     1  UNL1        0.1226
     23 C         -20.8850    4.6760   28.0770 C.3     1  UNL1        0.2416
     24 O         -21.2760    5.7710   27.6440 O.3     1  UNL1       -0.2021
     25 C         -22.6920    4.1740   29.5370 C.3     1  UNL1        0.0216
     26 C         -23.2620    3.0480   30.4290 C.3     1  UNL1        0.0015
     27 C         -22.2670    2.2780   31.3310 C.3     1  UNL1        0.0000
     28 C         -24.4870    3.4860   31.2450 C.3     1  UNL1        0.0000
     29 C         -19.9230    4.0370   25.9390 C.3     1  UNL1        0.0756
     30 C         -20.6650    2.9880   25.0760 C.3     1  UNL1        0.0228
     31 C         -22.1630    3.4000   24.9960 C.3     1  UNL1        0.0658
     32 C         -22.7570    3.2560   23.6250 C.3     1  UNL1        0.2690
     33 C         -18.4050    4.0820   25.7600 C.3     1  UNL1        0.0215
     34 C         -17.8840    5.4750   26.2700 C.3     1  UNL1        0.0503
     35 C         -18.4740    6.7690   25.6650 C.3     1  UNL1        0.0229
     36 C         -17.2110    7.6040   25.3330 C.3     1  UNL1        0.0914
     37 N         -16.0900    6.8420   25.8200 N.3     1  UNL1       -0.1893
     38 C         -16.4030    5.5850   26.1230 C.3     1  UNL1        0.2255
     39 O         -15.6720    4.5510   26.2560 O.3     1  UNL1       -0.2037
     40 N         -20.2110    3.7610   27.3500 N.3     1  UNL1       -0.1895
     41 O         -22.0310    2.8450   22.7210 O.3     1  UNL1       -0.1899
     42 C         -24.7090    4.9140   23.1340 C.3     1  UNL1        0.1448
     43 O         -24.1890    3.5730   23.3850 O.3     1  UNL1       -0.3285
     44 C         -24.5750    5.2080   20.5370 C.3     1  UNL1        0.0025
     45 C         -25.1820    5.5070   19.2810 C.3     1  UNL1        0.0001
     46 C         -26.5660    5.8400   19.2050 C.3     1  UNL1        0.0000
     47 C         -27.3490    5.8790   20.3880 C.3     1  UNL1        0.0001
     48 C         -26.7380    5.5720   21.6270 C.3     1  UNL1        0.0025
     49 C         -25.3520    5.2150   21.7400 C.3     1  UNL1        0.0298
@<TRIPOS>BOND
     1     2     1    1
     2     3     2    1
     3     4     2    1
     4     5     4    1
     5     6     5    1
     6     6     1    1
     7     7     6    1
     8     7     8    1
     9     9     7    1
    10    10     9    1
    11    11    10    1
    12    12    11    1
    13    10    13    1
    14    14    11    1
    15    15    14    1
    16    16    15    1
    17    17    16    1
    18    18    15    1
    19    18    19    1
    20    20    18    1
    21    21    16    1
    22    22    21    1
    23    23    22    1
    24    24    23    1
    25    22    25    1
    26    26    25    1
    27    26    27    1
    28    28    26    1
    29    29    30    1
    30    31    30    1
    31    32    31    1
    32    33    29    1
    33    34    33    1
    34    35    34    1
    35    36    35    1
    36    37    36    1
    37    38    34    1
    38    38    37    1
    39    39    38    1
    40    40    29    1
    41    40    23    1
    42    41    32    1
    43    43    42    1
    44    43    32    1
    45    45    44    1
    46    46    45    1
    47    47    46    1
    48    48    47    1
    49    49    44    1
    50    49    42    1
    51    49    48    1
