@<TRIPOS>MOLECULE
*****
 22 24 0 0 0
SMALL
GASTEIGER

@<TRIPOS>ATOM
      1 O          13.8630    6.9370   22.5470 O.2     1  UNL1       -0.2730
      2 C          13.6020    5.7580   22.7620 C.2     1  UNL1        0.2499
      3 C          14.1540    4.6730   23.6720 C.3     1  UNL1        0.1539
      4 N          12.7340    4.9100   22.1810 N.am    1  UNL1       -0.1652
      5 C          13.4130    3.7060   22.7360 C.3     1  UNL1        0.2718
      6 O          12.4940    2.9090   23.5280 O.3     1  UNL1       -0.4582
      7 C          12.3480    1.6250   23.0510 C.ar    1  UNL1        0.1419
      8 C          13.3940    0.7300   23.1960 C.ar    1  UNL1        0.0371
      9 C          13.2350   -0.5740   22.7550 C.ar    1  UNL1        0.0044
     10 C          12.0430   -0.9830   22.1780 C.ar    1  UNL1        0.0168
     11 C          11.1560    1.2400   22.4540 C.ar    1  UNL1        0.0535
     12 C          11.0060   -0.0720   22.0100 C.ar    1  UNL1        0.0764
     13 N           9.8190   -0.5430   21.4030 N.am    1  UNL1       -0.1788
     14 C           8.7010    0.1480   21.0920 C.2     1  UNL1        0.2501
     15 O           8.6540    1.3710   20.9980 O.2     1  UNL1       -0.2726
     16 C           7.4810   -0.7180   20.8550 C.3     1  UNL1        0.1165
     17 C           6.5690   -0.1770   19.7790 C.ar    1  UNL1        0.0254
     18 C           6.9710   -0.1410   18.4540 C.ar    1  UNL1        0.0984
     19 N           6.3790    0.6130   17.5220 N.ar    1  UNL1       -0.2227
     20 C           5.3560    1.3540   17.9480 C.ar    1  UNL1        0.1989
     21 N           4.8830    1.4270   19.1940 N.ar    1  UNL1       -0.2227
     22 C           5.5090    0.6570   20.0910 C.ar    1  UNL1        0.0984
@<TRIPOS>BOND
     1     2     1    2
     2     3     2    1
     3     4     2   am
     4     5     4    1
     5     5     3    1
     6     5     6    1
     7     7     6    1
     8     8     7   ar
     9     9     8   ar
    10    10     9   ar
    11    11     7   ar
    12    12    11   ar
    13    12    10   ar
    14    13    12    1
    15    14    13   am
    16    15    14    2
    17    16    14    1
    18    17    16    1
    19    18    17   ar
    20    19    18   ar
    21    20    19   ar
    22    21    20   ar
    23    22    21   ar
    24    22    17   ar
