@<TRIPOS>MOLECULE
*****
 33 36 0 0 0
SMALL
GASTEIGER

@<TRIPOS>ATOM
      1 O           6.4460   -0.1690   24.8340 O.3     1  UNL1       -0.2049
      2 C           7.3150   -0.9540   25.1820 C.3     1  UNL1        0.2141
      3 N           8.2620   -1.3950   24.3720 N.3     1  UNL1       -0.2482
      4 C           7.3690   -1.4770   26.5990 C.3     1  UNL1        0.0689
      5 N           6.0070   -2.3370   28.4630 N.3     1  UNL1       -0.2193
      6 O           5.8710   -4.5210   19.6860 O.3     1  UNL1       -0.2087
      7 C           6.8010   -3.8000   20.0190 C.3     1  UNL1        0.2248
      8 C           6.5960   -2.3140   20.1070 C.3     1  UNL1        0.1158
      9 C           6.4560   -1.8450   18.6620 C.3     1  UNL1        0.0398
     10 C           5.5970   -0.6190   18.4850 C.3     1  UNL1        0.0932
     11 N           5.5480    0.1360   17.3750 N.3     1  UNL1       -0.1997
     12 C           4.6650    1.1270   17.5820 C.3     1  UNL1        0.1782
     13 N           4.1630    1.0020   18.8240 N.3     1  UNL1       -0.1983
     14 C           4.7210   -0.0790   19.3870 C.3     1  UNL1        0.1077
     15 N           7.7620   -1.6380   20.7290 N.3     1  UNL1       -0.2145
     16 C           8.0690   -2.0960   22.0920 C.3     1  UNL1        0.1047
     17 C           8.3030   -0.8870   23.0050 C.3     1  UNL1        0.0770
     18 C           9.6700   -0.2200   22.8270 C.3     1  UNL1        0.0175
     19 C          10.8150   -1.1570   23.1940 C.3     1  UNL1        0.0027
     20 C          12.1540   -0.4390   23.0990 C.3     1  UNL1        0.0001
     21 C          13.2850   -1.4190   23.3630 C.3     1  UNL1        0.0000
     22 C          13.1420   -2.0270   24.7580 C.3     1  UNL1        0.0000
     23 C          11.7610   -2.6550   24.9410 C.3     1  UNL1        0.0014
     24 C          10.6320   -1.6880   24.6020 C.3     1  UNL1        0.0161
     25 C           9.2830   -2.3820   24.6840 C.3     1  UNL1        0.0743
     26 C           5.9740   -1.6050   27.2020 C.3     1  UNL1        0.0928
     27 C           6.7450   -3.4650   28.6250 C.3     1  UNL1        0.0728
     28 C           7.2540   -4.1660   27.5360 C.3     1  UNL1        0.0174
     29 C           8.0090   -5.3160   27.7160 C.3     1  UNL1        0.0014
     30 C           8.2570   -5.7840   28.9900 C.3     1  UNL1        0.0001
     31 C           7.7560   -5.0910   30.0730 C.3     1  UNL1        0.0014
     32 C           6.9990   -3.9420   29.8960 C.3     1  UNL1        0.0174
     33 S           8.3760   -4.1960   18.8780 S.3     1  UNL1       -0.0461
@<TRIPOS>BOND
     1     2     1    1
     2     3     2    1
     3     4     2    1
     4     7     6    1
     5     8     7    1
     6     8     9    1
     7    10     9    1
     8    11    10    1
     9    12    11    1
    10    13    12    1
    11    14    13    1
    12    14    10    1
    13    15     8    1
    14    16    15    1
    15    17    16    1
    16    17     3    1
    17    18    17    1
    18    19    18    1
    19    20    19    1
    20    21    20    1
    21    22    21    1
    22    23    22    1
    23    24    19    1
    24    24    23    1
    25    25    24    1
    26    25     3    1
    27    26     4    1
    28    26     5    1
    29    27     5    1
    30    28    27    1
    31    29    28    1
    32    30    29    1
    33    31    30    1
    34    32    31    1
    35    32    27    1
    36     7    33    1
