@<TRIPOS>MOLECULE
*****
 19 20 0 0 0
SMALL
GASTEIGER

@<TRIPOS>ATOM
      1 N           6.1210   -5.3110   24.2750 N.3     1  UNL1       -0.1520
      2 C           1.0870   -1.0810   25.8160 C.3     1  UNL1        0.0310
      3 O           6.5230   -4.8190   26.6460 O.2     1  UNL1       -0.1528
      4 C           2.1750   -2.1150   25.8100 C.ar    1  UNL1       -0.0218
      5 C           6.7820   -4.0960   23.7690 C.3     1  UNL1        0.1173
      6 C           6.5540   -4.6380   20.4230 C.2     1  UNL1        0.2262
      7 C           7.2130   -3.3550   19.9930 C.3     1  UNL1        0.0948
      8 C           3.4210   -1.8390   26.3500 C.ar    1  UNL1       -0.0029
      9 C           4.4330   -2.7810   26.3500 C.ar    1  UNL1        0.0196
     10 C           4.1990   -4.0260   25.7870 C.ar    1  UNL1        0.1222
     11 C           2.9590   -4.3280   25.2460 C.ar    1  UNL1        0.0196
     12 C           1.9640   -3.3690   25.2600 C.ar    1  UNL1       -0.0029
     13 C           5.3380   -5.9810   23.2260 C.3     1  UNL1        0.1173
     14 C           6.2750   -6.3740   22.1150 C.3     1  UNL1        0.1126
     15 C           7.6980   -4.4680   22.6310 C.3     1  UNL1        0.1126
     16 N           6.9480   -5.1840   21.5950 N.am    1  UNL1       -0.2766
     17 O           4.8400   -6.5140   26.0040 O.2     1  UNL1       -0.1528
     18 O           5.6780   -5.1370   19.7280 O.2     1  UNL1       -0.2749
     19 S           5.4730   -5.2520   25.7790 S.O2    1  UNL1        0.0634
@<TRIPOS>BOND
     1     4     2    1
     2     5     1    1
     3     7     6    1
     4     8     4   ar
     5     9     8   ar
     6    10     9   ar
     7    11    10   ar
     8    12    11   ar
     9    12     4   ar
    10    13     1    1
    11    14    13    1
    12    15     5    1
    13    16    14    1
    14    16     6   am
    15    16    15    1
    16    18     6    2
    17    19    17    2
    18    19    10    1
    19    19     3    2
    20    19     1    1
