@<TRIPOS>MOLECULE
*****
 22 24 0 0 0
SMALL
GASTEIGER

@<TRIPOS>ATOM
      1 CL         13.7960   -1.7400   22.0140 Cl      1  UNL1       -0.0799
      2 C          12.4330   -1.0260   22.8080 C.ar    1  UNL1        0.0847
      3 C          12.6180    0.0010   23.7080 C.ar    1  UNL1        0.1506
      4 F          13.8650    0.4790   23.9150 F       1  UNL1       -0.2033
      5 C          11.1550   -1.4800   22.5410 C.ar    1  UNL1        0.0099
      6 C          10.0560   -0.8910   23.1630 C.ar    1  UNL1       -0.0120
      7 C          10.2800    0.1170   24.0930 C.ar    1  UNL1       -0.0014
      8 C          11.5580    0.5700   24.3700 C.ar    1  UNL1        0.0302
      9 C           8.6510   -1.2260   22.7110 C.3     1  UNL1        0.1135
     10 C           8.3130   -0.3640   21.5110 C.2     1  UNL1        0.2500
     11 O           9.1940    0.0870   20.7930 O.2     1  UNL1       -0.2726
     12 N           7.0110   -0.0540   21.3510 N.am    1  UNL1       -0.1773
     13 C           6.3320    0.2860   20.1590 C.ar    1  UNL1        0.0925
     14 C           5.0000    0.7870   20.2730 C.ar    1  UNL1        0.0184
     15 C           4.3250    0.9460   21.5100 C.ar    1  UNL1        0.0014
     16 C           3.1230    1.5900   21.5770 C.ar    1  UNL1        0.0000
     17 C           2.5340    2.1080   20.4330 C.ar    1  UNL1        0.0001
     18 C           3.1290    1.9550   19.2130 C.ar    1  UNL1        0.0016
     19 C           4.3650    1.2730   19.0950 C.ar    1  UNL1        0.0204
     20 C           5.0540    1.1270   17.8660 C.ar    1  UNL1        0.0989
     21 N           6.2600    0.5930   17.7480 N.ar    1  UNL1       -0.2410
     22 C           6.8730    0.2020   18.8730 C.ar    1  UNL1        0.1154
@<TRIPOS>BOND
     1     2     1    1
     2     3     2   ar
     3     4     3    1
     4     5     2   ar
     5     6     5   ar
     6     7     6   ar
     7     8     7   ar
     8     8     3   ar
     9     9     6    1
    10    10     9    1
    11    11    10    2
    12    12    10   am
    13    13    12    1
    14    14    13   ar
    15    15    14   ar
    16    16    15   ar
    17    17    16   ar
    18    18    17   ar
    19    19    18   ar
    20    19    14   ar
    21    20    19   ar
    22    21    20   ar
    23    22    21   ar
    24    22    13   ar
