@<TRIPOS>MOLECULE
*****
 24 27 0 0 0
SMALL
GASTEIGER

@<TRIPOS>ATOM
      1 O           9.0960    1.1310   21.0560 O.2     1  UNL1       -0.2726
      2 C           8.6090    0.0550   21.4110 C.2     1  UNL1        0.2493
      3 C           9.1960   -0.7610   22.5650 C.3     1  UNL1        0.1021
      4 C           8.3910   -0.5750   23.8570 C.3     1  UNL1        0.0256
      5 C           8.4180    0.8760   24.3120 C.3     1  UNL1        0.0630
      6 S          10.0800    1.4380   24.7420 S.3     1  UNL1       -0.1139
      7 C          10.6670   -0.4470   22.7580 C.ar    1  UNL1       -0.0072
      8 C          11.1170    0.5500   23.6330 C.ar    1  UNL1        0.0217
      9 C          12.4740    0.8650   23.7140 C.ar    1  UNL1        0.0067
     10 C          13.3920    0.1830   22.9360 C.ar    1  UNL1        0.0119
     11 C          11.6110   -1.1400   22.0030 C.ar    1  UNL1        0.0081
     12 C          12.9470   -0.8050   22.0880 C.ar    1  UNL1        0.0574
     13 CL         14.0830   -1.5910   21.0250 Cl      1  UNL1       -0.0823
     14 N           7.5260   -0.5070   20.8180 N.am    1  UNL1       -0.1774
     15 C           6.7530    0.0050   19.7510 C.ar    1  UNL1        0.0925
     16 C           5.6250    0.8310   20.0520 C.ar    1  UNL1        0.0184
     17 C           5.1670    1.0890   21.3690 C.ar    1  UNL1        0.0014
     18 C           4.1010    1.9160   21.5930 C.ar    1  UNL1        0.0000
     19 C           3.4410    2.5210   20.5340 C.ar    1  UNL1        0.0001
     20 C           3.8410    2.3010   19.2480 C.ar    1  UNL1        0.0016
     21 C           4.9400    1.4520   18.9710 C.ar    1  UNL1        0.0204
     22 C           5.4110    1.2000   17.6610 C.ar    1  UNL1        0.0989
     23 N           6.4460    0.4240   17.3790 N.ar    1  UNL1       -0.2410
     24 C           7.0870   -0.1530   18.4030 C.ar    1  UNL1        0.1154
@<TRIPOS>BOND
     1     2     1    2
     2     3     2    1
     3     4     3    1
     4     5     4    1
     5     6     5    1
     6     7     3    1
     7     8     7   ar
     8     8     6    1
     9     9     8   ar
    10    10     9   ar
    11    11     7   ar
    12    12    11   ar
    13    12    10   ar
    14    13    12    1
    15    14     2   am
    16    15    14    1
    17    16    15   ar
    18    17    16   ar
    19    18    17   ar
    20    19    18   ar
    21    20    19   ar
    22    21    20   ar
    23    21    16   ar
    24    22    21   ar
    25    23    22   ar
    26    24    23   ar
    27    24    15   ar
