
     RDKit          3D

 20 22  0  0  0  0  0  0  0  0999 V2000
    9.2520    1.0200   21.2610 O   0  0  0  0  0  0  0  0  0  0  0  0
    8.7560    0.0380   21.8080 C   0  0  0  0  0  0  0  0  0  0  0  0
    9.3030   -0.5110   23.1110 C   0  0  0  0  0  0  0  0  0  0  0  0
   10.8020   -0.3900   23.2790 C   0  0  0  0  0  0  0  0  0  0  0  0
   11.3430    0.2780   24.3700 C   0  0  0  0  0  0  0  0  0  0  0  0
   12.7150    0.3940   24.5220 C   0  0  0  0  0  0  0  0  0  0  0  0
   13.5720   -0.1610   23.5860 C   0  0  0  0  0  0  0  0  0  0  0  0
   11.6650   -0.9540   22.3430 C   0  0  0  0  0  0  0  0  0  0  0  0
   13.0310   -0.8270   22.5090 C   0  0  0  0  0  0  0  0  0  0  0  0
   14.0950   -1.5050   21.3090 Cl  0  0  0  0  0  0  0  0  0  0  0  0
    7.7080   -0.6400   21.3060 N   0  0  0  0  0  0  0  0  0  0  0  0
    7.0990   -0.2010   20.1320 N   0  0  0  0  0  0  0  0  0  0  0  0
    5.9420    0.5790   20.0710 C   0  0  0  0  0  0  0  0  0  0  0  0
    5.7210    0.7590   18.7040 C   0  0  0  0  0  0  0  0  0  0  0  0
    6.7030    0.0970   17.9600 N   0  0  0  0  0  0  0  0  0  0  0  0
    7.4890   -0.4470   18.8560 C   0  0  0  0  0  0  0  0  0  0  0  0
    5.1970    1.2450   21.0360 C   0  0  0  0  0  0  0  0  0  0  0  0
    4.1900    2.0990   20.5970 C   0  0  0  0  0  0  0  0  0  0  0  0
    3.9350    2.2670   19.2340 C   0  0  0  0  0  0  0  0  0  0  0  0
    4.6930    1.5990   18.2780 C   0  0  0  0  0  0  0  0  0  0  0  0
  2  1  2  0
  3  2  1  0
  4  3  1  0
  5  4  2  0
  6  5  1  0
  7  6  2  0
  8  4  1  0
  9  8  2  0
  9  7  1  0
 10  9  1  0
 11  2  1  0
 12 11  1  0
 13 12  1  0
 14 13  2  0
 15 14  1  0
 16 15  2  0
 16 12  1  0
 17 13  1  0
 18 17  2  0
 19 18  1  0
 20 19  2  0
 20 14  1  0
M  END
