@<TRIPOS>MOLECULE
*****
 20 22 0 0 0
SMALL
GASTEIGER

@<TRIPOS>ATOM
      1 O           9.2520    1.0200   21.2610 O.2     1  UNL1       -0.2712
      2 C           8.7560    0.0380   21.8080 C.2     1  UNL1        0.2658
      3 C           9.3030   -0.5110   23.1110 C.3     1  UNL1        0.1150
      4 C          10.8020   -0.3900   23.2790 C.ar    1  UNL1       -0.0121
      5 C          11.3430    0.2780   24.3700 C.ar    1  UNL1       -0.0037
      6 C          12.7150    0.3940   24.5220 C.ar    1  UNL1        0.0006
      7 C          13.5720   -0.1610   23.5860 C.ar    1  UNL1        0.0114
      8 C          11.6650   -0.9540   22.3430 C.ar    1  UNL1        0.0076
      9 C          13.0310   -0.8270   22.5090 C.ar    1  UNL1        0.0574
     10 CL         14.0950   -1.5050   21.3090 Cl      1  UNL1       -0.0823
     11 N           7.7080   -0.6400   21.3060 N.am    1  UNL1       -0.0947
     12 N           7.0990   -0.2010   20.1320 N.ar    1  UNL1       -0.2145
     13 C           5.9420    0.5790   20.0710 C.ar    1  UNL1        0.1001
     14 C           5.7210    0.7590   18.7040 C.ar    1  UNL1        0.1005
     15 N           6.7030    0.0970   17.9600 N.ar    1  UNL1       -0.2226
     16 C           7.4890   -0.4470   18.8560 C.ar    1  UNL1        0.1983
     17 C           5.1970    1.2450   21.0360 C.ar    1  UNL1        0.0206
     18 C           4.1900    2.0990   20.5970 C.ar    1  UNL1        0.0016
     19 C           3.9350    2.2670   19.2340 C.ar    1  UNL1        0.0016
     20 C           4.6930    1.5990   18.2780 C.ar    1  UNL1        0.0207
@<TRIPOS>BOND
     1     2     1    2
     2     3     2    1
     3     4     3    1
     4     5     4   ar
     5     6     5   ar
     6     7     6   ar
     7     8     4   ar
     8     9     8   ar
     9     9     7   ar
    10    10     9    1
    11    11     2   am
    12    12    11    1
    13    13    12   ar
    14    14    13   ar
    15    15    14   ar
    16    16    15   ar
    17    16    12   ar
    18    17    13   ar
    19    18    17   ar
    20    19    18   ar
    21    20    19   ar
    22    20    14   ar
