@<TRIPOS>MOLECULE
*****
 20 21 0 0 0
SMALL
GASTEIGER

@<TRIPOS>ATOM
      1 CL         13.9290   -1.6590   21.2300 Cl      1  UNL1       -0.0823
      2 C          12.8070   -0.7850   22.2280 C.ar    1  UNL1        0.0574
      3 C          13.2860    0.1330   23.1360 C.ar    1  UNL1        0.0114
      4 C          12.3910    0.7360   24.0070 C.ar    1  UNL1        0.0006
      5 C          11.0380    0.4440   23.9300 C.ar    1  UNL1       -0.0038
      6 C          11.4610   -1.0750   22.1290 C.ar    1  UNL1        0.0076
      7 C          10.5560   -0.4370   22.9710 C.ar    1  UNL1       -0.0130
      8 C           9.0660   -0.5960   22.7290 C.3     1  UNL1        0.1008
      9 C           8.6270   -2.0680   22.7030 C.3     1  UNL1        0.0136
     10 C           8.6960   -2.7220   24.0660 C.3     1  UNL1        0.0009
     11 C           8.6890    0.1940   21.4710 C.2     1  UNL1        0.2492
     12 O           9.1750    1.2950   21.2310 O.2     1  UNL1       -0.2726
     13 N           7.8120   -0.4090   20.6370 N.am    1  UNL1       -0.1776
     14 C           6.7250   -0.0100   19.8370 C.ar    1  UNL1        0.0918
     15 C           5.7110    0.8560   20.3020 C.ar    1  UNL1        0.0160
     16 C           5.3600    0.9700   21.7640 C.3     1  UNL1        0.0341
     17 C           4.9610    1.5290   19.3430 C.ar    1  UNL1        0.1192
     18 N           5.1670    1.3850   18.0280 N.ar    1  UNL1       -0.1466
     19 N           6.1420    0.5370   17.5860 N.ar    1  UNL1       -0.1450
     20 C           6.8590   -0.1380   18.4580 C.ar    1  UNL1        0.1384
@<TRIPOS>BOND
     1     2     1    1
     2     3     2   ar
     3     4     3   ar
     4     5     4   ar
     5     6     2   ar
     6     7     6   ar
     7     7     5   ar
     8     8     7    1
     9     8     9    1
    10    10     9    1
    11    11     8    1
    12    12    11    2
    13    13    11   am
    14    14    13    1
    15    15    14   ar
    16    16    15    1
    17    17    15   ar
    18    18    17   ar
    19    19    18   ar
    20    20    19   ar
    21    20    14   ar
