@<TRIPOS>MOLECULE
*****
 33 37 0 0 0
SMALL
GASTEIGER

@<TRIPOS>ATOM
      1 O           9.5170    1.2720   21.1290 O.2     1  UNL1       -0.2726
      2 C           8.9950    0.3390   21.7190 C.2     1  UNL1        0.2501
      3 N           7.8250   -0.2050   21.3130 N.am    1  UNL1       -0.1773
      4 C           7.0560    0.1660   20.1880 C.ar    1  UNL1        0.0925
      5 C           5.8500    0.9060   20.4000 C.ar    1  UNL1        0.0184
      6 C           5.3540    1.2610   21.6830 C.ar    1  UNL1        0.0014
      7 C           4.2200    2.0110   21.8170 C.ar    1  UNL1        0.0000
      8 C           3.5250    2.4470   20.6970 C.ar    1  UNL1        0.0001
      9 C           3.9530    2.1200   19.4410 C.ar    1  UNL1        0.0016
     10 C           5.1220    1.3380   19.2580 C.ar    1  UNL1        0.0204
     11 C           5.6250    0.9850   17.9830 C.ar    1  UNL1        0.0989
     12 N           6.7360    0.2870   17.7870 N.ar    1  UNL1       -0.2410
     13 C           7.4230   -0.1030   18.8680 C.ar    1  UNL1        0.1154
     14 C           9.6120   -0.2140   23.0230 C.3     1  UNL1        0.1120
     15 C          11.1290   -0.0210   22.9860 C.ar    1  UNL1        0.0218
     16 C          11.9150   -0.8100   22.1520 C.ar    1  UNL1        0.0106
     17 C          13.2720   -0.5690   22.0760 C.ar    1  UNL1        0.0576
     18 CL         14.2120   -1.4340   20.8940 Cl      1  UNL1       -0.0823
     19 C          13.8870    0.3980   22.8470 C.ar    1  UNL1        0.0145
     20 C          13.1230    1.1630   23.7080 C.ar    1  UNL1        0.0374
     21 C          11.7550    0.9550   23.7650 C.ar    1  UNL1        0.1350
     22 O          11.0650    1.7430   24.6480 O.3     1  UNL1       -0.4757
     23 C           9.9130    1.0800   25.1970 C.3     1  UNL1        0.2062
     24 C           8.9400    0.6510   24.1180 C.3     1  UNL1        0.0616
     25 C           9.3370   -1.7250   23.2230 C.3     1  UNL1        0.1020
     26 N           7.9850   -2.0660   23.6590 N.3     1  UNL1       -0.2107
     27 C           7.6650   -3.4590   23.4080 C.3     1  UNL1        0.1360
     28 C           8.5200   -4.2860   24.3150 C.ar    1  UNL1        0.0976
     29 C           9.3750   -5.3830   23.9920 C.ar    1  UNL1        0.0381
     30 C           9.9190   -5.7730   25.1740 C.ar    1  UNL1        0.0964
     31 N           8.5420   -4.0270   25.6270 N.ar    1  UNL1       -0.1721
     32 N           9.3940   -4.9550   26.1360 N.ar    1  UNL1       -0.2476
     33 C           9.5830   -5.0360   27.5770 C.3     1  UNL1        0.1537
@<TRIPOS>BOND
     1     2     1    2
     2     3     2   am
     3     4     3    1
     4     5     4   ar
     5     6     5   ar
     6     7     6   ar
     7     8     7   ar
     8     9     8   ar
     9    10     9   ar
    10    10     5   ar
    11    11    10   ar
    12    12    11   ar
    13    13    12   ar
    14    13     4   ar
    15    14     2    1
    16    15    14    1
    17    16    15   ar
    18    17    16   ar
    19    18    17    1
    20    19    17   ar
    21    20    19   ar
    22    21    20   ar
    23    21    15   ar
    24    22    21    1
    25    23    22    1
    26    24    23    1
    27    24    14    1
    28    14    25    1
    29    26    25    1
    30    27    26    1
    31    28    27    1
    32    29    28   ar
    33    30    29   ar
    34    31    28   ar
    35    32    30   ar
    36    32    31   ar
    37    33    32    1
