@<TRIPOS>MOLECULE
*****
 21 23 0 0 0
SMALL
GASTEIGER

@<TRIPOS>ATOM
      1 O           9.0050    0.9940   20.9830 O.2     1  UNL1       -0.2726
      2 C           8.5010   -0.0860   21.2990 C.2     1  UNL1        0.2501
      3 C           9.1130   -0.9870   22.3550 C.3     1  UNL1        0.1150
      4 C          10.5480   -0.6320   22.6640 C.ar    1  UNL1        0.0070
      5 C          10.8640    0.4200   23.5100 C.ar    1  UNL1        0.0951
      6 N          12.1130    0.8400   23.7570 N.ar    1  UNL1       -0.2418
      7 C          13.1200    0.1980   23.1490 C.ar    1  UNL1        0.1102
      8 C          11.6020   -1.2980   22.0510 C.ar    1  UNL1        0.0107
      9 C          12.8920   -0.8680   22.2830 C.ar    1  UNL1        0.0765
     10 CL         14.2050   -1.6060   21.4060 Cl      1  UNL1       -0.0806
     11 N           7.3720   -0.5710   20.7500 N.am    1  UNL1       -0.1773
     12 C           6.5910    0.0010   19.7310 C.ar    1  UNL1        0.0925
     13 C           5.4660    0.8070   20.0920 C.ar    1  UNL1        0.0184
     14 C           5.0140    0.9810   21.4280 C.ar    1  UNL1        0.0014
     15 C           3.9340    1.7720   21.7070 C.ar    1  UNL1        0.0000
     16 C           3.2560    2.4310   20.6840 C.ar    1  UNL1        0.0001
     17 C           3.6560    2.2960   19.3850 C.ar    1  UNL1        0.0016
     18 C           4.7650    1.4770   19.0520 C.ar    1  UNL1        0.0204
     19 C           5.2160    1.2830   17.7250 C.ar    1  UNL1        0.0989
     20 N           6.2520    0.5230   17.3900 N.ar    1  UNL1       -0.2410
     21 C           6.9120   -0.0930   18.3770 C.ar    1  UNL1        0.1154
@<TRIPOS>BOND
     1     2     1    2
     2     3     2    1
     3     4     3    1
     4     5     4   ar
     5     6     5   ar
     6     7     6   ar
     7     8     4   ar
     8     9     8   ar
     9     9     7   ar
    10    10     9    1
    11    11     2   am
    12    12    11    1
    13    13    12   ar
    14    14    13   ar
    15    15    14   ar
    16    16    15   ar
    17    17    16   ar
    18    18    17   ar
    19    18    13   ar
    20    19    18   ar
    21    20    19   ar
    22    21    20   ar
    23    21    12   ar
