@<TRIPOS>MOLECULE
*****
 27 30 0 0 0
SMALL
GASTEIGER

@<TRIPOS>ATOM
      1 CL         14.1460   -1.5160   21.1230 Cl      1  UNL1       -0.0823
      2 C          12.9910   -0.8020   22.2180 C.ar    1  UNL1        0.0575
      3 C          11.6640   -1.1670   22.1210 C.ar    1  UNL1        0.0088
      4 C          13.4150    0.1440   23.1260 C.ar    1  UNL1        0.0127
      5 C          12.4890    0.7360   23.9690 C.ar    1  UNL1        0.0155
      6 C          11.1390    0.3940   23.8820 C.ar    1  UNL1        0.0519
      7 N          10.1720    1.0080   24.7320 N.am    1  UNL1       -0.2409
      8 C          10.5820    1.8060   25.7500 C.2     1  UNL1        0.3467
      9 O          10.6250    1.3340   26.8990 O.2     1  UNL1       -0.2487
     10 N          10.8750    3.0780   25.4500 N.am    1  UNL1       -0.0689
     11 C          10.7130   -0.5550   22.9370 C.ar    1  UNL1        0.0009
     12 C           9.2460   -0.8750   22.7390 C.3     1  UNL1        0.1037
     13 C           8.4370   -0.5850   24.0060 C.3     1  UNL1        0.0355
     14 C           8.7310    0.8210   24.4930 C.3     1  UNL1        0.1007
     15 C           8.6950   -0.0750   21.5580 C.2     1  UNL1        0.2493
     16 O           9.2100    0.9830   21.1850 O.2     1  UNL1       -0.2726
     17 N           7.6040   -0.6220   20.9720 N.am    1  UNL1       -0.1774
     18 C           6.8460   -0.0930   19.9100 C.ar    1  UNL1        0.0925
     19 C           5.7280    0.7390   20.2230 C.ar    1  UNL1        0.0184
     20 C           5.2700    0.9820   21.5440 C.ar    1  UNL1        0.0014
     21 C           4.2020    1.8030   21.7790 C.ar    1  UNL1        0.0000
     22 C           3.5430    2.4250   20.7270 C.ar    1  UNL1        0.0001
     23 C           3.9400    2.2160   19.4380 C.ar    1  UNL1        0.0016
     24 C           5.0330    1.3630   19.1480 C.ar    1  UNL1        0.0204
     25 C           5.4770    1.0880   17.8310 C.ar    1  UNL1        0.0989
     26 N           6.5050    0.3030   17.5380 N.ar    1  UNL1       -0.2410
     27 C           7.1650   -0.2620   18.5630 C.ar    1  UNL1        0.1154
@<TRIPOS>BOND
     1     2     1    1
     2     3     2   ar
     3     4     2   ar
     4     5     4   ar
     5     6     5   ar
     6     7     6    1
     7     8     7   am
     8     9     8    2
     9    10     8   am
    10    11     6   ar
    11    11     3   ar
    12    12    11    1
    13    13    12    1
    14    14    13    1
    15    14     7    1
    16    12    15    1
    17    16    15    2
    18    17    15   am
    19    18    17    1
    20    19    18   ar
    21    20    19   ar
    22    21    20   ar
    23    22    21   ar
    24    23    22   ar
    25    24    23   ar
    26    24    19   ar
    27    25    24   ar
    28    26    25   ar
    29    27    26   ar
    30    27    18   ar
