@<TRIPOS>MOLECULE
*****
 31 35 0 0 0
SMALL
GASTEIGER

@<TRIPOS>ATOM
      1 O           8.6980    3.3810   25.7770 O.2     1  UNL1       -0.1408
      2 S           7.9180    2.4290   25.0650 S.O2    1  UNL1        0.1023
      3 O           6.8900    1.6900   25.7140 O.2     1  UNL1       -0.1408
      4 N           7.2640    3.2390   23.8480 N.3     1  UNL1       -0.1453
      5 C           7.7930    3.5510   22.4910 C.3     1  UNL1        0.0984
      6 C           6.6980    4.6160   22.3610 C.3     1  UNL1        0.0384
      7 C           6.0160    4.0100   23.5930 C.3     1  UNL1        0.0984
      8 N           8.9210    1.3700   24.4000 N.3     1  UNL1       -0.1401
      9 C          10.3090    1.4100   24.8770 C.3     1  UNL1        0.1229
     10 C           8.4370    0.0050   24.1220 C.3     1  UNL1        0.1108
     11 C           9.1970   -0.5720   22.9250 C.3     1  UNL1        0.1182
     12 C          10.6990   -0.3570   23.0700 C.ar    1  UNL1       -0.0142
     13 C          11.2020    0.6150   23.9550 C.ar    1  UNL1       -0.0078
     14 C          12.5740    0.8640   23.9890 C.ar    1  UNL1       -0.0023
     15 C          13.4460    0.1730   23.1720 C.ar    1  UNL1        0.0111
     16 C          11.5930   -1.0830   22.2760 C.ar    1  UNL1        0.0074
     17 C          12.9480   -0.7990   22.3330 C.ar    1  UNL1        0.0574
     18 CL         14.0480   -1.6610   21.2900 Cl      1  UNL1       -0.0823
     19 C           8.6920    0.0900   21.6380 C.2     1  UNL1        0.2507
     20 O           9.2690    1.0480   21.1290 O.2     1  UNL1       -0.2726
     21 N           7.5220   -0.4100   21.1580 N.am    1  UNL1       -0.1773
     22 C           6.7630    0.0810   20.0660 C.ar    1  UNL1        0.0925
     23 C           5.5670    0.8280   20.3320 C.ar    1  UNL1        0.0184
     24 C           5.0340    1.0280   21.6330 C.ar    1  UNL1        0.0014
     25 C           3.8940    1.7600   21.8200 C.ar    1  UNL1        0.0000
     26 C           3.2330    2.3340   20.7410 C.ar    1  UNL1        0.0001
     27 C           3.7040    2.1670   19.4700 C.ar    1  UNL1        0.0016
     28 C           4.8750    1.4050   19.2290 C.ar    1  UNL1        0.0204
     29 C           5.4000    1.1870   17.9320 C.ar    1  UNL1        0.0989
     30 N           6.5000    0.4880   17.6820 N.ar    1  UNL1       -0.2410
     31 C           7.1510   -0.0390   18.7300 C.ar    1  UNL1        0.1154
@<TRIPOS>BOND
     1     2     1    2
     2     3     2    2
     3     2     4    1
     4     5     4    1
     5     6     5    1
     6     7     6    1
     7     7     4    1
     8     8     2    1
     9     9     8    1
    10    10     8    1
    11    11    10    1
    12    12    11    1
    13    13    12   ar
    14    13     9    1
    15    14    13   ar
    16    15    14   ar
    17    16    12   ar
    18    17    16   ar
    19    17    15   ar
    20    18    17    1
    21    11    19    1
    22    20    19    2
    23    21    19   am
    24    22    21    1
    25    23    22   ar
    26    24    23   ar
    27    25    24   ar
    28    26    25   ar
    29    27    26   ar
    30    28    27   ar
    31    28    23   ar
    32    29    28   ar
    33    30    29   ar
    34    31    30   ar
    35    31    22   ar
