@<TRIPOS>MOLECULE
*****
 29 32 0 0 0
SMALL
GASTEIGER

@<TRIPOS>ATOM
      1 O           9.0690    1.5970   21.2040 O.2     1  UNL1       -0.2723
      2 C           8.9690    0.5110   21.7520 C.2     1  UNL1        0.2545
      3 C           8.3270   -0.6700   21.0260 C.3     1  UNL1        0.2141
      4 N           7.4440   -0.2080   19.9780 N.ar    1  UNL1       -0.2223
      5 C           6.2650    0.4630   20.0780 C.ar    1  UNL1        0.0994
      6 C           5.4470    0.8090   21.1450 C.ar    1  UNL1        0.0204
      7 C           4.3150    1.5650   20.8670 C.ar    1  UNL1        0.0016
      8 C           4.0100    1.9480   19.5640 C.ar    1  UNL1        0.0017
      9 C           4.8340    1.5930   18.5030 C.ar    1  UNL1        0.0225
     10 C           5.9730    0.8390   18.7710 C.ar    1  UNL1        0.1217
     11 N           6.9680    0.3680   17.9460 N.ar    1  UNL1       -0.1288
     12 N           7.8380   -0.2670   18.6800 N.ar    1  UNL1       -0.0634
     13 N           9.3860    0.2960   23.0330 N.am    1  UNL1       -0.2527
     14 C           9.3400   -0.9690   23.6850 C.ar    1  UNL1        0.0543
     15 C           8.4660   -1.1750   24.7440 C.ar    1  UNL1        0.0162
     16 C           8.3760   -2.4170   25.3440 C.ar    1  UNL1        0.0158
     17 C          10.1330   -2.0180   23.2380 C.ar    1  UNL1        0.0162
     18 C          10.0280   -3.2660   23.8200 C.ar    1  UNL1        0.0158
     19 C           9.1510   -3.4910   24.8880 C.ar    1  UNL1        0.0480
     20 N           9.0420   -4.7370   25.4620 N.pl3   1  UNL1       -0.3041
     21 C          10.1350   -5.6860   25.3780 C.3     1  UNL1        0.1122
     22 C           8.1210   -4.9890   26.5630 C.3     1  UNL1        0.1122
     23 C           9.9000    1.4320   23.8060 C.3     1  UNL1        0.1248
     24 C          11.3200    1.7980   23.4490 C.ar    1  UNL1       -0.0020
     25 C          11.5930    2.9350   22.6970 C.ar    1  UNL1       -0.0026
     26 C          12.8880    3.2260   22.3000 C.ar    1  UNL1       -0.0003
     27 C          13.9260    2.3830   22.6450 C.ar    1  UNL1       -0.0000
     28 C          13.6720    1.2580   23.4090 C.ar    1  UNL1       -0.0003
     29 C          12.3770    0.9710   23.8130 C.ar    1  UNL1       -0.0026
@<TRIPOS>BOND
     1     2     1    2
     2     3     2    1
     3     4     3    1
     4     5     4   ar
     5     6     5   ar
     6     7     6   ar
     7     8     7   ar
     8     9     8   ar
     9    10     9   ar
    10    10     5   ar
    11    11    10   ar
    12    12    11   ar
    13    12     4   ar
    14    13     2   am
    15    14    13    1
    16    15    14   ar
    17    16    15   ar
    18    17    14   ar
    19    18    17   ar
    20    19    18   ar
    21    19    16   ar
    22    20    19    1
    23    21    20    1
    24    22    20    1
    25    23    13    1
    26    24    23    1
    27    25    24   ar
    28    26    25   ar
    29    27    26   ar
    30    28    27   ar
    31    29    28   ar
    32    29    24   ar
