@<TRIPOS>MOLECULE
*****
 21 24 0 0 0
SMALL
GASTEIGER

@<TRIPOS>ATOM
      1 O           8.7650    1.2640   21.1510 O.2     1  UNL1       -0.2724
      2 C           8.3620    0.1200   21.3280 C.2     1  UNL1        0.2555
      3 C           8.7980   -0.7300   22.5230 C.3     1  UNL1        0.1473
      4 C           8.3110   -0.0740   23.8110 C.3     1  UNL1        0.2189
      5 O           9.4580    0.6480   24.3380 O.3     1  UNL1       -0.4749
      6 C          10.3000   -0.6700   22.7020 C.ar    1  UNL1        0.0247
      7 C          10.6010    0.2500   23.6840 C.ar    1  UNL1        0.1352
      8 C          11.9040    0.6150   23.9780 C.ar    1  UNL1        0.0374
      9 C          12.9310    0.0090   23.2760 C.ar    1  UNL1        0.0145
     10 C          11.3320   -1.2960   22.0190 C.ar    1  UNL1        0.0107
     11 C          12.6320   -0.9570   22.3290 C.ar    1  UNL1        0.0576
     12 CL         13.9250   -1.8400   21.5860 Cl      1  UNL1       -0.0823
     13 N           7.4800   -0.4850   20.4900 N.am    1  UNL1       -0.1429
     14 C           6.9630    0.0480   19.3440 C.ar    1  UNL1        0.2445
     15 N           5.7280    0.6500   19.3080 N.ar    1  UNL1       -0.2815
     16 C           5.6010    1.0690   18.0090 C.ar    1  UNL1        0.2036
     17 N           6.6550    0.7620   17.3100 N.ar    1  UNL1       -0.1242
     18 N           7.5340    0.1040   18.1540 N.ar    1  UNL1       -0.1107
     19 C           4.7850    0.8520   20.4310 C.3     1  UNL1        0.0898
     20 C           5.1380    1.8470   21.4820 C.3     1  UNL1        0.0246
     21 C           4.0400    2.1400   20.5070 C.3     1  UNL1        0.0246
@<TRIPOS>BOND
     1     2     1    2
     2     3     2    1
     3     4     3    1
     4     5     4    1
     5     6     3    1
     6     7     6   ar
     7     7     5    1
     8     8     7   ar
     9     9     8   ar
    10    10     6   ar
    11    11    10   ar
    12    11     9   ar
    13    12    11    1
    14    13     2   am
    15    14    13    1
    16    15    14   ar
    17    16    15   ar
    18    17    16   ar
    19    18    17   ar
    20    18    14   ar
    21    19    15    1
    22    20    19    1
    23    21    20    1
    24    21    19    1
