@<TRIPOS>MOLECULE
*****
 24 27 0 0 0
SMALL
GASTEIGER

@<TRIPOS>ATOM
      1 O           9.3030    1.1020   21.0850 O.2     1  UNL1       -0.2726
      2 C           8.7170    0.1350   21.5650 C.2     1  UNL1        0.2495
      3 C           9.2400   -0.6030   22.8010 C.3     1  UNL1        0.1074
      4 C          10.7290   -0.3580   22.9420 C.ar    1  UNL1        0.0212
      5 C          11.6460   -0.9690   22.0910 C.ar    1  UNL1        0.0106
      6 C           8.4860   -0.1580   24.0670 C.3     1  UNL1        0.0610
      7 C           9.0120    1.1730   24.5370 C.3     1  UNL1        0.2062
      8 O          10.4150    1.1020   24.8650 O.3     1  UNL1       -0.4757
      9 C          11.2170    0.5200   23.9160 C.ar    1  UNL1        0.1350
     10 C          12.5720    0.8060   24.0180 C.ar    1  UNL1        0.0374
     11 C          13.4640    0.2080   23.1470 C.ar    1  UNL1        0.0145
     12 C          12.9890   -0.6740   22.2010 C.ar    1  UNL1        0.0576
     13 CL         14.1050   -1.4180   21.0950 Cl      1  UNL1       -0.0823
     14 N           7.4860   -0.2530   21.1690 N.am    1  UNL1       -0.1774
     15 C           6.7670    0.0170   19.9910 C.ar    1  UNL1        0.0926
     16 C           7.2640    0.0100   18.6890 C.ar    1  UNL1        0.1154
     17 N           6.6470    0.5070   17.6090 N.ar    1  UNL1       -0.2409
     18 C           5.4750    1.0890   17.7910 C.ar    1  UNL1        0.1005
     19 C           4.8490    1.2290   19.0520 C.ar    1  UNL1        0.0396
     20 C           5.4970    0.6550   20.1820 C.ar    1  UNL1        0.0214
     21 C           3.6750    1.9860   19.2910 C.ar    1  UNL1        0.1004
     22 N           3.1530    2.1820   20.4980 N.ar    1  UNL1       -0.2423
     23 C           3.7760    1.6230   21.5470 C.ar    1  UNL1        0.0989
     24 C           4.9100    0.8710   21.4530 C.ar    1  UNL1        0.0221
@<TRIPOS>BOND
     1     2     1    2
     2     3     2    1
     3     4     3    1
     4     5     4   ar
     5     6     3    1
     6     7     6    1
     7     8     7    1
     8     9     8    1
     9     9     4   ar
    10    10     9   ar
    11    11    10   ar
    12    12    11   ar
    13    12     5   ar
    14    13    12    1
    15    14     2   am
    16    15    14    1
    17    16    15   ar
    18    17    16   ar
    19    18    17   ar
    20    19    18   ar
    21    20    19   ar
    22    20    15   ar
    23    21    19   ar
    24    22    21   ar
    25    23    22   ar
    26    24    23   ar
    27    24    20   ar
