@<TRIPOS>MOLECULE
*****
 26 29 0 0 0
SMALL
GASTEIGER

@<TRIPOS>ATOM
      1 O           9.6060    1.2620   21.0290 O.2     1  UNL1       -0.2701
      2 C           9.1720    0.2850   21.6180 C.2     1  UNL1        0.2742
      3 C           9.8530   -0.2250   22.9140 C.3     1  UNL1        0.1877
      4 C          11.3590   -0.0860   22.8670 C.ar    1  UNL1        0.0453
      5 C          12.0970   -0.7060   21.8650 C.ar    1  UNL1        0.0129
      6 C          13.4590   -0.4910   21.7970 C.ar    1  UNL1        0.0576
      7 CL         14.3900   -1.3920   20.6410 Cl      1  UNL1       -0.0823
      8 C          14.1080    0.3620   22.6630 C.ar    1  UNL1        0.0145
      9 C          13.3890    0.9840   23.6670 C.ar    1  UNL1        0.0375
     10 C          12.0290    0.7440   23.7730 C.ar    1  UNL1        0.1372
     11 O          11.4300    1.2740   24.8900 O.3     1  UNL1       -0.4756
     12 C          10.1070    0.7920   25.2020 C.3     1  UNL1        0.2087
     13 C           9.2180    0.6760   23.9810 C.3     1  UNL1        0.0879
     14 O           9.3550   -1.5710   23.0000 O.3     1  UNL1       -0.3428
     15 C          10.2810   -2.6040   23.3480 C.3     1  UNL1        0.1750
     16 N           8.0570   -0.3710   21.2290 N.am    1  UNL1       -0.1754
     17 C           7.2490    0.0100   20.1390 C.ar    1  UNL1        0.0925
     18 C           6.0470    0.7350   20.4020 C.ar    1  UNL1        0.0184
     19 C           5.5770    1.0370   21.7060 C.ar    1  UNL1        0.0014
     20 C           4.4390    1.7710   21.8890 C.ar    1  UNL1        0.0000
     21 C           3.7120    2.2340   20.7990 C.ar    1  UNL1        0.0001
     22 C           4.1220    1.9650   19.5240 C.ar    1  UNL1        0.0016
     23 C           5.2980    1.2140   19.2900 C.ar    1  UNL1        0.0204
     24 C           5.7940    0.9400   17.9940 C.ar    1  UNL1        0.0989
     25 N           6.9130    0.2730   17.7490 N.ar    1  UNL1       -0.2410
     26 C           7.6110   -0.1790   18.8040 C.ar    1  UNL1        0.1154
@<TRIPOS>BOND
     1     2     1    2
     2     3     2    1
     3     4     3    1
     4     5     4   ar
     5     6     5   ar
     6     7     6    1
     7     8     6   ar
     8     9     8   ar
     9    10     9   ar
    10    10     4   ar
    11    11    10    1
    12    12    11    1
    13    13    12    1
    14    13     3    1
    15     3    14    1
    16    15    14    1
    17    16     2   am
    18    17    16    1
    19    18    17   ar
    20    19    18   ar
    21    20    19   ar
    22    21    20   ar
    23    22    21   ar
    24    23    22   ar
    25    23    18   ar
    26    24    23   ar
    27    25    24   ar
    28    26    25   ar
    29    26    17   ar
