@<TRIPOS>MOLECULE
*****
 21 23 0 0 0
SMALL
GASTEIGER

@<TRIPOS>ATOM
      1 O           9.2580    0.8310   20.9700 O.2     1  UNL1       -0.2726
      2 C           8.7510   -0.2350   21.3170 C.2     1  UNL1        0.2516
      3 C           9.4460   -1.1800   22.2780 C.3     1  UNL1        0.1328
      4 C          10.8700   -0.7890   22.5900 C.ar    1  UNL1        0.0692
      5 C          11.9470   -1.3460   21.9140 C.ar    1  UNL1        0.0153
      6 C          13.2240   -0.8990   22.2120 C.ar    1  UNL1        0.0037
      7 C          13.4080    0.0680   23.1880 C.ar    1  UNL1        0.0308
      8 N          11.0250    0.1410   23.5510 N.ar    1  UNL1       -0.2378
      9 C          12.2680    0.5180   23.8300 C.ar    1  UNL1        0.1379
     10 CL         12.4350    1.5850   25.1930 Cl      1  UNL1       -0.0613
     11 N           7.5540   -0.6710   20.8710 N.am    1  UNL1       -0.1773
     12 C           6.7660   -0.1020   19.8550 C.ar    1  UNL1        0.0925
     13 C           5.6390    0.6970   20.2170 C.ar    1  UNL1        0.0184
     14 C           5.1900    0.8750   21.5510 C.ar    1  UNL1        0.0014
     15 C           4.1270    1.6870   21.8310 C.ar    1  UNL1        0.0000
     16 C           3.4520    2.3470   20.8150 C.ar    1  UNL1        0.0001
     17 C           3.8370    2.1980   19.5130 C.ar    1  UNL1        0.0016
     18 C           4.9380    1.3700   19.1780 C.ar    1  UNL1        0.0204
     19 C           5.3960    1.1880   17.8520 C.ar    1  UNL1        0.0989
     20 N           6.4420    0.4430   17.5180 N.ar    1  UNL1       -0.2410
     21 C           7.0980   -0.1830   18.5050 C.ar    1  UNL1        0.1154
@<TRIPOS>BOND
     1     2     1    2
     2     3     2    1
     3     4     3    1
     4     5     4   ar
     5     6     5   ar
     6     7     6   ar
     7     8     4   ar
     8     9     8   ar
     9     9     7   ar
    10    10     9    1
    11    11     2   am
    12    12    11    1
    13    13    12   ar
    14    14    13   ar
    15    15    14   ar
    16    16    15   ar
    17    17    16   ar
    18    18    17   ar
    19    18    13   ar
    20    19    18   ar
    21    20    19   ar
    22    21    20   ar
    23    21    12   ar
