@<TRIPOS>MOLECULE
*****
 18 19 0 0 0
SMALL
GASTEIGER

@<TRIPOS>ATOM
      1 CL         13.8740   -1.8070   21.2360 Cl      1  UNL1       -0.0823
      2 C          12.6620   -1.0590   22.2360 C.ar    1  UNL1        0.0574
      3 C          13.0450   -0.1580   23.2040 C.ar    1  UNL1        0.0114
      4 C          12.0710    0.3820   24.0290 C.ar    1  UNL1        0.0006
      5 C          10.7360    0.0500   23.8450 C.ar    1  UNL1       -0.0037
      6 C          11.3410   -1.4070   22.0480 C.ar    1  UNL1        0.0076
      7 C          10.3570   -0.8340   22.8450 C.ar    1  UNL1       -0.0122
      8 C           8.9000   -1.1180   22.5630 C.3     1  UNL1        0.1135
      9 C           8.4490   -0.3100   21.3640 C.2     1  UNL1        0.2500
     10 O           9.0310    0.7130   21.0220 O.2     1  UNL1       -0.2726
     11 N           7.3530   -0.7800   20.7430 N.am    1  UNL1       -0.1774
     12 C           6.6300   -0.1170   19.7300 C.ar    1  UNL1        0.0922
     13 C           7.0170   -0.1460   18.3950 C.ar    1  UNL1        0.1154
     14 N           6.3890    0.5350   17.4350 N.ar    1  UNL1       -0.2413
     15 C           5.3380    1.2860   17.7930 C.ar    1  UNL1        0.0947
     16 C           5.5360    0.6730   20.0690 C.ar    1  UNL1        0.0155
     17 C           4.8720    1.4040   19.0970 C.ar    1  UNL1       -0.0014
     18 C           3.7030    2.2940   19.4460 C.3     1  UNL1        0.0327
@<TRIPOS>BOND
     1     2     1    1
     2     3     2   ar
     3     4     3   ar
     4     5     4   ar
     5     6     2   ar
     6     7     5   ar
     7     7     6   ar
     8     8     7    1
     9     9     8    1
    10    10     9    2
    11    11     9   am
    12    12    11    1
    13    13    12   ar
    14    14    13   ar
    15    15    14   ar
    16    16    12   ar
    17    17    15   ar
    18    17    16   ar
    19    18    17    1
