@<TRIPOS>MOLECULE
*****
 21 23 0 0 0
SMALL
GASTEIGER

@<TRIPOS>ATOM
      1 O           8.8110    0.8950   21.0940 O.2     1  UNL1       -0.2726
      2 C           8.3560   -0.2230   21.3130 C.2     1  UNL1        0.2514
      3 C           8.8670   -1.0890   22.4500 C.3     1  UNL1        0.1135
      4 C          10.3070   -0.7550   22.7700 C.ar    1  UNL1       -0.0122
      5 C          10.6290    0.2740   23.6470 C.ar    1  UNL1       -0.0037
      6 C          11.9490    0.6590   23.8360 C.ar    1  UNL1        0.0006
      7 C          12.9700    0.0060   23.1640 C.ar    1  UNL1        0.0114
      8 C          11.3330   -1.4120   22.1020 C.ar    1  UNL1        0.0076
      9 C          12.6400   -1.0240   22.3040 C.ar    1  UNL1        0.0574
     10 CL         13.9020   -1.8400   21.4230 Cl      1  UNL1       -0.0823
     11 N           7.4610   -0.7920   20.5100 N.am    1  UNL1       -0.1583
     12 C           6.6020   -0.2430   19.6390 C.ar    1  UNL1        0.1758
     13 C           5.4840    0.5560   20.0750 C.ar    1  UNL1        0.0368
     14 C           4.8260    1.3110   19.0630 C.ar    1  UNL1        0.0238
     15 C           5.3770    1.2750   17.7680 C.ar    1  UNL1        0.1222
     16 N           6.4470    0.5930   17.4570 N.ar    1  UNL1       -0.1451
     17 N           7.0320   -0.1840   18.3840 N.ar    1  UNL1       -0.1310
     18 C           4.9380    0.5850   21.3830 C.ar    1  UNL1        0.0029
     19 C           3.8010    1.2990   21.6560 C.ar    1  UNL1        0.0001
     20 C           3.1590    2.0160   20.6620 C.ar    1  UNL1        0.0001
     21 C           3.6480    2.0320   19.3910 C.ar    1  UNL1        0.0017
@<TRIPOS>BOND
     1     2     1    2
     2     3     2    1
     3     4     3    1
     4     5     4   ar
     5     6     5   ar
     6     7     6   ar
     7     8     4   ar
     8     9     8   ar
     9     9     7   ar
    10    10     9    1
    11    11     2   am
    12    12    11    1
    13    13    12   ar
    14    14    13   ar
    15    15    14   ar
    16    16    15   ar
    17    17    16   ar
    18    17    12   ar
    19    18    13   ar
    20    19    18   ar
    21    20    19   ar
    22    21    20   ar
    23    21    14   ar
