@<TRIPOS>MOLECULE
*****
 15 16 0 0 0
SMALL
GASTEIGER

@<TRIPOS>ATOM
      1 C          22.0580   20.1830    4.0280 C.3     1  UNL1        0.2128
      2 C          20.8370   19.3380    4.2740 C.3     1  UNL1        0.1640
      3 C          21.2400   17.8440    4.2560 C.3     1  UNL1        0.1050
      4 C          22.4520   16.3420    5.5040 C.3     1  UNL1        0.0993
      5 C          21.9550   15.1010    6.2390 C.ar    1  UNL1       -0.0061
      6 C          22.5720   13.9020    5.9450 C.ar    1  UNL1       -0.0029
      7 C          22.1720   12.7400    6.5710 C.ar    1  UNL1       -0.0003
      8 C          21.1560   12.7660    7.5070 C.ar    1  UNL1       -0.0000
      9 C          20.5450   13.9450    7.8100 C.ar    1  UNL1       -0.0003
     10 C          20.9440   15.1210    7.1730 C.ar    1  UNL1       -0.0029
     11 C          21.8170   18.2360    6.5540 C.3     1  UNL1        0.1049
     12 C          20.6590   19.2410    6.6890 C.3     1  UNL1        0.1595
     13 N          21.5840   17.2990    5.5370 N.3     1  UNL1       -0.2646
     14 O          21.9450   21.3680    4.6980 O.3     1  UNL1       -0.2177
     15 O          20.1790   19.7630    5.4560 O.3     1  UNL1       -0.3507
@<TRIPOS>BOND
     1     2     1    1
     2     3     2    1
     3     5     4    1
     4     6     5   ar
     5     7     6   ar
     6     8     7   ar
     7     9     8   ar
     8    10     9   ar
     9    10     5   ar
    10    12    11    1
    11    13     3    1
    12    13     4    1
    13    13    11    1
    14    14     1    1
    15    15     2    1
    16    15    12    1
