@<TRIPOS>MOLECULE
*****
 23 26 0 0 0
SMALL
GASTEIGER

@<TRIPOS>ATOM
      1 O           9.1850    1.2950   21.1780 O.2     1  UNL1       -0.2742
      2 C           8.6840    0.2800   21.6290 C.2     1  UNL1        0.2330
      3 C           9.1470   -0.5060   22.8490 C.3     1  UNL1        0.1010
      4 C          10.6490   -0.4660   23.0950 C.ar    1  UNL1       -0.0130
      5 C          11.1530    0.0880   24.2640 C.ar    1  UNL1       -0.0038
      6 C          12.5130    0.0570   24.5340 C.ar    1  UNL1        0.0006
      7 C          13.3920   -0.5210   23.6330 C.ar    1  UNL1        0.0114
      8 C          11.5330   -1.0370   22.1850 C.ar    1  UNL1        0.0076
      9 C          12.8880   -1.0500   22.4640 C.ar    1  UNL1        0.0574
     10 CL         13.9900   -1.7040   21.2830 Cl      1  UNL1       -0.0823
     11 N           7.5820   -0.3560   21.1250 N.am    1  UNL1       -0.2569
     12 C           7.2500   -1.5970   21.8500 C.3     1  UNL1        0.0991
     13 C           8.5440   -1.9130   22.5880 C.3     1  UNL1        0.0354
     14 C           6.7970    0.1080   20.0150 C.ar    1  UNL1        0.0730
     15 C           5.6550    0.9470   20.2060 C.ar    1  UNL1        0.0167
     16 C           5.1580    1.3390   21.4780 C.ar    1  UNL1        0.0013
     17 C           4.0700    2.1550   21.5880 C.ar    1  UNL1        0.0000
     18 C           3.4200    2.6260   20.4540 C.ar    1  UNL1        0.0001
     19 C           3.8550    2.2750   19.2080 C.ar    1  UNL1        0.0016
     20 C           4.9800    1.4300   19.0470 C.ar    1  UNL1        0.0204
     21 C           5.4830    1.0420   17.7780 C.ar    1  UNL1        0.0989
     22 N           6.5390    0.2600   17.6050 N.ar    1  UNL1       -0.2410
     23 C           7.1610   -0.1880   18.7040 C.ar    1  UNL1        0.1137
@<TRIPOS>BOND
     1     2     1    2
     2     3     2    1
     3     3     4    1
     4     5     4   ar
     5     6     5   ar
     6     7     6   ar
     7     8     4   ar
     8     9     8   ar
     9     9     7   ar
    10    10     9    1
    11    11     2   am
    12    12    11    1
    13    13    12    1
    14    13     3    1
    15    14    11    1
    16    15    14   ar
    17    16    15   ar
    18    17    16   ar
    19    18    17   ar
    20    19    18   ar
    21    20    19   ar
    22    20    15   ar
    23    21    20   ar
    24    22    21   ar
    25    23    22   ar
    26    23    14   ar
