@<TRIPOS>MOLECULE
*****
 30 33 0 0 0
SMALL
GASTEIGER

@<TRIPOS>ATOM
      1 O           8.6700    1.0140   21.0230 O.2     1  UNL1       -0.2726
      2 C           8.5820   -0.1900   21.2530 C.2     1  UNL1        0.2500
      3 C           7.3990   -1.0110   20.7770 C.3     1  UNL1        0.1150
      4 C           6.6240   -0.2470   19.7240 C.ar    1  UNL1        0.0062
      5 C           5.5360    0.5880   20.0880 C.ar    1  UNL1       -0.0005
      6 C           5.1060    0.7680   21.4280 C.ar    1  UNL1       -0.0002
      7 C           4.0670    1.5990   21.7270 C.ar    1  UNL1       -0.0000
      8 C           3.4020    2.2850   20.7250 C.ar    1  UNL1        0.0000
      9 C           3.7780    2.1490   19.4210 C.ar    1  UNL1        0.0015
     10 C           4.8550    1.3010   19.0680 C.ar    1  UNL1        0.0189
     11 C           5.3140    1.1360   17.7410 C.ar    1  UNL1        0.0988
     12 N           6.3370    0.3630   17.4040 N.ar    1  UNL1       -0.2426
     13 C           6.9570   -0.3070   18.3850 C.ar    1  UNL1        0.0951
     14 N           9.5050   -0.8950   21.9390 N.am    1  UNL1       -0.1788
     15 C          10.6760   -0.4020   22.5580 C.ar    1  UNL1        0.0773
     16 C          11.7900   -1.2260   22.6770 C.ar    1  UNL1        0.0282
     17 C          12.9230   -0.7280   23.2910 C.ar    1  UNL1        0.0620
     18 CL         14.2710   -1.7920   23.5540 Cl      1  UNL1       -0.0821
     19 C          12.9950    0.5660   23.7630 C.ar    1  UNL1        0.0490
     20 C          10.7170    0.9020   23.0400 C.ar    1  UNL1        0.0542
     21 C          11.8740    1.3720   23.6350 C.ar    1  UNL1        0.1493
     22 O          11.8460    2.6500   24.1880 O.3     1  UNL1       -0.4359
     23 C          12.4830    3.7050   23.6030 C.ar    1  UNL1        0.2322
     24 C          13.0690    3.4970   22.3530 C.ar    1  UNL1        0.0583
     25 C          13.7310    4.5710   21.7800 C.ar    1  UNL1        0.0096
     26 C          13.7810    5.7870   22.4380 C.ar    1  UNL1        0.0579
     27 N          12.5120    4.8540   24.2700 N.ar    1  UNL1       -0.1764
     28 C          13.1470    5.8680   23.6830 C.ar    1  UNL1        0.2275
     29 O          13.2110    7.0740   24.2900 O.3     1  UNL1       -0.4561
     30 C          12.5920    7.2190   25.5790 C.3     1  UNL1        0.2542
@<TRIPOS>BOND
     1     2     1    2
     2     3     2    1
     3     4     3    1
     4     5     4   ar
     5     6     5   ar
     6     7     6   ar
     7     8     7   ar
     8     9     8   ar
     9    10     9   ar
    10    10     5   ar
    11    11    10   ar
    12    12    11   ar
    13    13    12   ar
    14    13     4   ar
    15    14     2   am
    16    15    14    1
    17    16    15   ar
    18    17    16   ar
    19    18    17    1
    20    19    17   ar
    21    20    15   ar
    22    21    20   ar
    23    21    19   ar
    24    22    21    1
    25    23    22    1
    26    24    23   ar
    27    25    24   ar
    28    26    25   ar
    29    27    23   ar
    30    28    27   ar
    31    28    26   ar
    32    29    28    1
    33    30    29    1
