@<TRIPOS>MOLECULE
*****
 26 28 0 0 0
SMALL
GASTEIGER

@<TRIPOS>ATOM
      1 F           6.2910    0.7650   25.3900 F       1  UNL1       -0.1700
      2 C           5.7240   -0.2900   25.9720 C.3     1  UNL1        0.3992
      3 F           4.4880    0.0730   26.3020 F       1  UNL1       -0.1700
      4 F           5.6030   -1.2230   25.0290 F       1  UNL1       -0.1700
      5 C           6.4990   -0.7730   27.1600 C.3     1  UNL1        0.1166
      6 C           6.9830    0.2750   28.1170 C.3     1  UNL1        0.0321
      7 C           7.9490   -0.6990   27.5200 C.3     1  UNL1        0.1010
      8 N           9.1650   -0.1920   26.9020 N.pl3   1  UNL1       -0.2390
      9 C           9.7040   -0.2730   25.6210 C.ar    1  UNL1        0.0658
     10 C          10.9970    0.2080   25.4230 C.ar    1  UNL1        0.0275
     11 C          11.5890    0.0330   24.1870 C.ar    1  UNL1        0.0587
     12 CL         13.3100    0.2910   24.0350 Cl      1  UNL1       -0.0822
     13 C          10.8970   -0.5070   23.1190 C.ar    1  UNL1        0.0077
     14 C           9.0060   -0.8370   24.5560 C.ar    1  UNL1        0.0124
     15 C           9.5920   -0.9520   23.3000 C.ar    1  UNL1       -0.0109
     16 C           8.8450   -1.6160   22.1640 C.3     1  UNL1        0.1135
     17 C           8.1510   -0.6150   21.2620 C.2     1  UNL1        0.2500
     18 O           8.6290    0.4870   21.0360 O.2     1  UNL1       -0.2726
     19 N           6.9880   -1.0420   20.7350 N.am    1  UNL1       -0.1777
     20 C           6.2670   -0.3330   19.7510 C.ar    1  UNL1        0.0885
     21 C           5.0870    0.3510   20.0950 C.ar    1  UNL1       -0.0034
     22 C           4.5470    0.3560   21.5040 C.3     1  UNL1        0.0325
     23 C           6.7490   -0.2230   18.4490 C.ar    1  UNL1        0.1151
     24 N           6.1540    0.5110   17.5030 N.ar    1  UNL1       -0.2410
     25 C           5.0240    1.1440   17.8370 C.ar    1  UNL1        0.0987
     26 C           4.4630    1.0900   19.0950 C.ar    1  UNL1        0.0177
@<TRIPOS>BOND
     1     2     1    1
     2     3     2    1
     3     4     2    1
     4     5     2    1
     5     5     6    1
     6     7     5    1
     7     7     6    1
     8     7     8    1
     9     9     8    1
    10    10     9   ar
    11    11    10   ar
    12    12    11    1
    13    13    11   ar
    14    14     9   ar
    15    15    14   ar
    16    15    13   ar
    17    16    15    1
    18    17    16    1
    19    18    17    2
    20    19    17   am
    21    20    19    1
    22    21    20   ar
    23    22    21    1
    24    23    20   ar
    25    24    23   ar
    26    25    24   ar
    27    26    25   ar
    28    26    21   ar
