@<TRIPOS>MOLECULE
*****
 18 20 0 0 0
SMALL
GASTEIGER

@<TRIPOS>ATOM
      1 N           7.1950   -4.5680   21.2730 N.am    1  UNL1       -0.2791
      2 C           7.4510   -2.9950   19.3850 C.3     1  UNL1        0.0948
      3 O           5.6630   -4.5310   19.6390 O.2     1  UNL1       -0.2749
      4 C           6.6980   -4.0840   20.1170 C.2     1  UNL1        0.2261
      5 C          13.1960   -0.8070   24.9210 C.ar    1  UNL1        0.0016
      6 C          13.7240   -1.8750   25.6330 C.ar    1  UNL1        0.0006
      7 C          13.0540   -3.0740   25.7040 C.ar    1  UNL1        0.0080
      8 C          11.8390   -3.1810   25.0300 C.ar    1  UNL1        0.0482
      9 C           6.3660   -5.4360   22.1180 C.3     1  UNL1        0.0934
     10 C           7.2110   -6.3550   22.9770 C.3     1  UNL1        0.0220
     11 C           8.0760   -5.5430   23.9440 C.3     1  UNL1        0.0099
     12 C           8.4500   -4.1890   23.3310 C.3     1  UNL1        0.0664
     13 C           8.5250   -4.3230   21.8210 C.3     1  UNL1        0.0998
     14 C           9.7210   -3.6030   23.9040 C.ar    1  UNL1        0.0895
     15 C          11.3030   -2.1110   24.3050 C.ar    1  UNL1        0.0875
     16 C          11.9930   -0.9050   24.2550 C.ar    1  UNL1        0.0196
     17 N          10.0850   -2.3800   23.6850 N.ar    1  UNL1       -0.2427
     18 S          10.7760   -4.5480   24.9280 S.2     1  UNL1       -0.0707
@<TRIPOS>BOND
     1     4     3    2
     2     4     2    1
     3     4     1   am
     4     6     5   ar
     5     7     6   ar
     6     8     7   ar
     7     9     1    1
     8    10     9    1
     9    11    10    1
    10    12    11    1
    11    13     1    1
    12    13    12    1
    13    12    14    1
    14    15     8   ar
    15    16    15   ar
    16    16     5   ar
    17    17    14   ar
    18    17    15   ar
    19    18    14   ar
    20    18     8   ar
