@<TRIPOS>MOLECULE
*****
 15 16 0 0 0
SMALL
GASTEIGER

@<TRIPOS>ATOM
      1 C           8.4620   -1.4260   20.8180 C.3     1  UNL1        0.1169
      2 C           7.4230   -1.7030   18.5170 C.3     1  UNL1        0.1443
      3 C           6.5860   -0.4090   18.4240 C.ar    1  UNL1        0.1204
      4 C           5.6120   -0.0080   19.3360 C.ar    1  UNL1        0.0553
      5 C           5.1130    1.1880   18.9000 C.ar    1  UNL1        0.1546
      6 C           4.0180    2.0090   19.5830 C.3     1  UNL1        0.0754
      7 C           6.6110   -3.1300   20.4730 C.2     1  UNL1        0.3235
      8 C           5.8040   -4.5360   22.4490 C.3     1  UNL1        0.0970
      9 C           6.4920   -5.5500   23.3670 C.3     1  UNL1        0.0235
     10 C           6.0680   -5.9600   21.9500 C.3     1  UNL1        0.0235
     11 N           7.4990   -2.0970   19.9360 N.am    1  UNL1       -0.2553
     12 N           6.6690    0.5400   17.4800 N.ar    1  UNL1       -0.0800
     13 N           6.6850   -3.4990   21.8960 N.am    1  UNL1       -0.1902
     14 O           5.7530    1.4990   17.7840 O.2     1  UNL1       -0.3580
     15 O           5.8350   -3.6660   19.7450 O.2     1  UNL1       -0.2508
@<TRIPOS>BOND
     1     3     2    1
     2     4     3   ar
     3     5     4   ar
     4     6     5    1
     5     9     8    1
     6    10     9    1
     7    10     8    1
     8    11     7   am
     9    11     2    1
    10    11     1    1
    11    12     3   ar
    12    13     7   am
    13     8    13    1
    14    14     5   ar
    15    14    12   ar
    16    15     7    2
