@<TRIPOS>MOLECULE
*****
 20 22 0 0 0
SMALL
GASTEIGER

@<TRIPOS>ATOM
      1 O           9.0300    0.8410   21.0620 O.2     1  UNL1       -0.2726
      2 C           8.5340   -0.2330   21.3800 C.2     1  UNL1        0.2500
      3 C           8.9990   -0.9910   22.6050 C.3     1  UNL1        0.1135
      4 C          10.4740   -0.7610   22.8270 C.ar    1  UNL1       -0.0122
      5 C          10.9180    0.1430   23.7820 C.ar    1  UNL1       -0.0037
      6 C          12.2650    0.4360   23.9090 C.ar    1  UNL1        0.0006
      7 C          13.1930   -0.1770   23.0830 C.ar    1  UNL1        0.0114
      8 C          11.4080   -1.3950   22.0160 C.ar    1  UNL1        0.0076
      9 C          12.7470   -1.0940   22.1540 C.ar    1  UNL1        0.0574
     10 CL         13.8960   -1.8790   21.1100 Cl      1  UNL1       -0.0823
     11 N           7.5290   -0.8120   20.6980 N.am    1  UNL1       -0.1777
     12 C           6.7640   -0.1480   19.7120 C.ar    1  UNL1        0.0885
     13 C           5.6200    0.5760   20.0810 C.ar    1  UNL1       -0.0041
     14 C           5.1640    0.6900   21.5280 C.3     1  UNL1        0.0237
     15 C           4.0460    1.6290   21.9040 C.3     1  UNL1        0.0047
     16 C           5.4400    1.9570   22.2970 C.3     1  UNL1        0.0047
     17 C           4.9240    1.2490   19.0820 C.ar    1  UNL1        0.0177
     18 C           5.3890    1.1980   17.7820 C.ar    1  UNL1        0.0987
     19 N           6.4830    0.5200   17.4140 N.ar    1  UNL1       -0.2410
     20 C           7.1430   -0.1430   18.3690 C.ar    1  UNL1        0.1151
@<TRIPOS>BOND
     1     2     1    2
     2     3     2    1
     3     4     3    1
     4     5     4   ar
     5     6     5   ar
     6     7     6   ar
     7     8     4   ar
     8     9     8   ar
     9     9     7   ar
    10    10     9    1
    11    11     2   am
    12    12    11    1
    13    13    12   ar
    14    14    13    1
    15    15    14    1
    16    16    14    1
    17    16    15    1
    18    17    13   ar
    19    18    17   ar
    20    19    18   ar
    21    20    19   ar
    22    20    12   ar
