@<TRIPOS>MOLECULE
*****
 10 10 0 0 0
SMALL
GASTEIGER

@<TRIPOS>ATOM
      1 C          16.5580   30.2020   -6.6280 C.3     1  UNL1        0.2418
      2 C          15.4620   29.8820   -5.6520 C.3     1  UNL1        0.0530
      3 C          15.0370   28.5720   -5.4330 C.3     1  UNL1        0.0230
      4 C          14.0290   28.3300   -4.5170 C.3     1  UNL1        0.0902
      5 C          13.7910   30.5530   -4.0790 C.3     1  UNL1        0.1518
      6 C          14.8080   30.8970   -4.9700 C.3     1  UNL1        0.0382
      7 N          17.4950   31.0680   -6.2590 N.3     1  UNL1       -0.0968
      8 N          13.4120   29.3100   -3.8420 N.3     1  UNL1       -0.2032
      9 O          16.5470   29.6850   -7.7570 O.3     1  UNL1       -0.2022
     10 CL         12.9840   31.8100   -3.1910 Cl      1  UNL1       -0.0957
@<TRIPOS>BOND
     1     2     1    1
     2     3     2    1
     3     4     3    1
     4     6     2    1
     5     6     5    1
     6     7     1    1
     7     8     5    1
     8     8     4    1
     9     9     1    1
    10    10     5    1
