@<TRIPOS>MOLECULE
*****
 16 18 0 0 0
SMALL
GASTEIGER

@<TRIPOS>ATOM
      1 C          21.8210   18.4360    6.0910 C.3     1  UNL1        0.0014
      2 C          21.2970   19.6610    5.7230 C.3     1  UNL1        0.0000
      3 C          21.8550   15.9160    5.9830 C.3     1  UNL1        0.0720
      4 C          20.4560   15.3530    7.8970 C.3     1  UNL1        0.0600
      5 C          21.6530   15.0220    8.7450 C.3     1  UNL1        0.0174
      6 C          22.2630   13.8050    8.0390 C.3     1  UNL1        0.0174
      7 C          21.4400   13.6630    6.7620 C.3     1  UNL1        0.0600
      8 C          20.2730   12.6990    6.9110 C.3     1  UNL1        0.0489
      9 C          19.3770   13.0740    8.0770 C.3     1  UNL1        0.1547
     10 C          19.2130   14.5670    8.2890 C.3     1  UNL1        0.0489
     11 O          19.8340   12.4690    9.2720 O.3     1  UNL1       -0.2231
     12 N          20.8570   14.9720    6.5430 N.3     1  UNL1       -0.2751
     13 C          21.2950   17.2650    5.5730 C.3     1  UNL1        0.0160
     14 C          20.2430   17.3560    4.6730 C.3     1  UNL1        0.0014
     15 C          19.7390   18.5830    4.2810 C.3     1  UNL1        0.0000
     16 C          20.2630   19.7310    4.8190 C.3     1  UNL1        0.0000
@<TRIPOS>BOND
     1     2     1    1
     2     4     5    1
     3     6     5    1
     4     7     6    1
     5     8     7    1
     6     9     8    1
     7    10     9    1
     8    10     4    1
     9     9    11    1
    10    12     7    1
    11    12     4    1
    12    12     3    1
    13    13     3    1
    14    13     1    1
    15    14    13    1
    16    15    14    1
    17    16    15    1
    18    16     2    1
