@<TRIPOS>MOLECULE
*****
 21 22 0 0 0
SMALL
GASTEIGER

@<TRIPOS>ATOM
      1 N           7.7770   -3.0880   23.4820 N.3     1  UNL1       -0.1181
      2 N           6.6050    0.6600   17.4810 N.ar    1  UNL1       -0.2410
      3 C           5.4340    1.1880   17.8550 C.ar    1  UNL1        0.0987
      4 C           9.2240   -0.4410   23.8230 C.ar    1  UNL1        0.1365
      5 O           6.1670   -2.1840   21.5960 O.2     1  UNL1       -0.2711
      6 C           7.3140   -1.7590   21.5120 C.2     1  UNL1        0.2674
      7 C          10.2340    0.3610   24.3460 C.ar    1  UNL1        0.0371
      8 C           9.5010   -1.3990   22.8430 C.ar    1  UNL1        0.0383
      9 C          10.8160   -1.5260   22.3920 C.ar    1  UNL1        0.0073
     10 C          11.8130   -0.7480   22.9480 C.ar    1  UNL1        0.0345
     11 C           5.7840    0.6710   20.1720 C.ar    1  UNL1       -0.0034
     12 C           7.3710    0.1210   18.4370 C.ar    1  UNL1        0.1151
     13 C           7.0100    0.0730   19.7850 C.ar    1  UNL1        0.0886
     14 C           4.9900    1.2110   19.1640 C.ar    1  UNL1        0.0177
     15 C           5.4440    0.9420   21.6160 C.3     1  UNL1        0.0325
     16 C           7.5120    0.7530   25.0050 C.3     1  UNL1        0.2525
     17 N           7.7220   -0.8390   20.6090 N.am    1  UNL1       -0.1765
     18 O           7.9120   -0.3620   24.2090 O.3     1  UNL1       -0.4717
     19 C           8.4280   -2.3760   22.3730 C.3     1  UNL1        0.1947
     20 BR         13.6300   -1.1080   22.4960 Br      1  UNL1       -0.0490
     21 C          11.5370    0.2030   23.9060 C.ar    1  UNL1        0.0098
@<TRIPOS>BOND
     1     3     2   ar
     2     6     5    2
     3     7     4   ar
     4     8     4   ar
     5     9     8   ar
     6    10     9   ar
     7    12     2   ar
     8    13    12   ar
     9    13    11   ar
    10    14     3   ar
    11    14    11   ar
    12    15    11    1
    13    17    13    1
    14    17     6   am
    15    18    16    1
    16    18     4    1
    17    19     6    1
    18    19     8    1
    19    19     1    1
    20    20    10    1
    21    21     7   ar
    22    21    10   ar
