@<TRIPOS>MOLECULE
*****
 17 18 0 0 0
SMALL
GASTEIGER

@<TRIPOS>ATOM
      1 N          22.5250  -22.6490   19.7250 N.am    1  UNL1       -0.1343
      2 C          24.9670  -20.0630   19.8370 C.3     1  UNL1        0.2574
      3 O          23.8670  -20.8850   20.1440 O.3     1  UNL1       -0.4292
      4 C          23.6160  -21.9430   19.2950 C.2     1  UNL1        0.4260
      5 C          21.4400  -21.8960   14.5120 C.ar    1  UNL1        0.0000
      6 C          21.6790  -22.9220   15.4360 C.ar    1  UNL1        0.0016
      7 C          22.0650  -23.7750   19.0590 C.ar    1  UNL1        0.1247
      8 C          21.3100  -25.9590   18.3090 C.ar    1  UNL1        0.0898
      9 C          20.9160  -27.3790   18.2040 C.3     1  UNL1        0.0595
     10 C          21.5550  -23.8220   17.7500 C.ar    1  UNL1        0.1030
     11 C          21.3720  -22.7230   16.7930 C.ar    1  UNL1        0.0194
     12 C          20.8380  -21.5010   17.2200 C.ar    1  UNL1        0.0016
     13 C          20.5990  -20.4790   16.2890 C.ar    1  UNL1        0.0000
     14 C          20.9010  -20.6740   14.9340 C.ar    1  UNL1        0.0000
     15 N          21.1290  -25.0980   17.3400 N.ar    1  UNL1       -0.2413
     16 O          24.2820  -22.1840   18.3030 O.2     1  UNL1       -0.2242
     17 S          22.0150  -25.3280   19.7840 S.2     1  UNL1       -0.0541
@<TRIPOS>BOND
     1     3     2    1
     2     4     1   am
     3     4     3    1
     4     6     5   ar
     5     7     1    1
     6     9     8    1
     7    10     7   ar
     8    11     6   ar
     9    11    10    1
    10    12    11   ar
    11    13    12   ar
    12    14     5   ar
    13    14    13   ar
    14    15    10   ar
    15    15     8   ar
    16    16     4    2
    17    17     8   ar
    18    17     7   ar
