@<TRIPOS>MOLECULE
*****
 15 16 0 0 0
SMALL
GASTEIGER

@<TRIPOS>ATOM
      1 O           6.0460   -5.3330   19.7450 O.2     1  UNL1       -0.2699
      2 C           6.7500   -4.5200   20.3250 C.2     1  UNL1        0.2804
      3 C           7.3580   -3.2800   19.6920 C.3     1  UNL1        0.2529
      4 O           6.3680   -2.5120   19.0390 O.3     1  UNL1       -0.2082
      5 C           7.9400   -2.5840   20.9050 C.ar    1  UNL1        0.0333
      6 C           8.5740   -1.3560   21.0740 C.ar    1  UNL1        0.0200
      7 N           7.0520   -4.5330   21.6440 N.am    1  UNL1       -0.1770
      8 C           7.7500   -3.3990   22.0200 C.ar    1  UNL1        0.0724
      9 C           8.1880   -3.0170   23.2840 C.ar    1  UNL1        0.0177
     10 C           8.8140   -1.7950   23.4410 C.ar    1  UNL1        0.0213
     11 C           8.9890   -0.9700   22.3390 C.ar    1  UNL1        0.1249
     12 S           9.7110    0.6240   22.5570 S.O2    1  UNL1        0.0935
     13 O          10.9660    0.4330   23.2270 O.2     1  UNL1       -0.1503
     14 O           9.6940    1.2780   21.2810 O.2     1  UNL1       -0.1503
     15 N           8.7800    1.4830   23.5390 N.3     1  UNL1        0.0392
@<TRIPOS>BOND
     1     2     1    2
     2     3     2    1
     3     3     4    1
     4     5     3    1
     5     6     5   ar
     6     7     2   am
     7     8     7    1
     8     8     5   ar
     9     9     8   ar
    10    10     9   ar
    11    11     6   ar
    12    11    10   ar
    13    12    11    1
    14    13    12    2
    15    14    12    2
    16    12    15    1
