@<TRIPOS>MOLECULE
*****
 33 36 0 0 0
SMALL
GASTEIGER

@<TRIPOS>ATOM
      1 O           6.7250   -0.0610   24.8180 O.3     1  UNL1       -0.2049
      2 C           7.5250   -0.8890   25.1900 C.3     1  UNL1        0.2141
      3 N           8.5700   -1.2850   24.4490 N.3     1  UNL1       -0.2482
      4 C           7.4260   -1.4980   26.5740 C.3     1  UNL1        0.0689
      5 N           6.0260   -1.9940   28.5510 N.3     1  UNL1       -0.2193
      6 O           6.0720   -4.2080   19.6330 O.3     1  UNL1       -0.2189
      7 C           6.9810   -3.5370   20.0530 C.3     1  UNL1        0.1993
      8 CA          6.9310   -2.0070   20.1110 C.3     1  UNL1        0.1071
      9 C           6.8410   -1.4370   18.7110 C.3     1  UNL1        0.0385
     10 C           6.0070   -0.2110   18.5240 C.3     1  UNL1        0.0890
     11 N           5.8640    0.4160   17.3590 N.3     1  UNL1       -0.2020
     12 C           5.0340    1.4450   17.5260 C.3     1  UNL1        0.1743
     13 N           4.6470    1.4840   18.8010 N.3     1  UNL1       -0.1987
     14 C           5.2410    0.4570   19.4350 C.3     1  UNL1        0.1072
     15 N           8.1030   -1.4360   20.7830 N.3     1  UNL1       -0.2153
     16 C           8.1160   -1.8640   22.1650 C.3     1  UNL1        0.1047
     17 C           8.6710   -0.7830   23.0700 C.3     1  UNL1        0.0770
     18 C          10.1140   -0.3850   22.7350 C.3     1  UNL1        0.0175
     19 C          11.1940   -1.3520   23.1800 C.3     1  UNL1        0.0027
     20 C          12.5700   -0.7050   23.0030 C.3     1  UNL1        0.0001
     21 C          13.6720   -1.6170   23.4980 C.3     1  UNL1        0.0000
     22 C          13.4340   -2.1740   24.9040 C.3     1  UNL1        0.0000
     23 C          12.0260   -2.7130   25.0690 C.3     1  UNL1        0.0014
     24 C          10.9960   -1.6860   24.6260 C.3     1  UNL1        0.0161
     25 C           9.6020   -2.2220   24.8940 C.3     1  UNL1        0.0743
     26 C           6.1080   -1.2650   27.2970 C.3     1  UNL1        0.0928
     27 C           6.3700   -3.2980   28.6780 C.3     1  UNL1        0.0728
     28 C           6.3050   -4.1880   27.5980 C.3     1  UNL1        0.0174
     29 C           6.6970   -5.5230   27.7510 C.3     1  UNL1        0.0014
     30 C           7.1380   -5.9530   28.9970 C.3     1  UNL1        0.0001
     31 C           7.1850   -5.0820   30.0610 C.3     1  UNL1        0.0014
     32 C           6.8160   -3.7610   29.8940 C.3     1  UNL1        0.0174
     33 S          -8.5670   -4.6840  -19.0320 S.3     1  UNL1        0.0117
@<TRIPOS>BOND
     1     2     1    1
     2     3     2    1
     3     4     2    1
     4     7     6    1
     5     8     7    1
     6     9     8    1
     7    10     9    1
     8    11    10    1
     9    12    11    1
    10    13    12    1
    11    14    13    1
    12    14    10    1
    13    15     8    1
    14    16    15    1
    15    17    16    1
    16    17     3    1
    17    18    17    1
    18    19    18    1
    19    20    19    1
    20    21    20    1
    21    22    21    1
    22    23    22    1
    23    24    23    1
    24    24    19    1
    25    25     3    1
    26    25    24    1
    27    26     4    1
    28    26     5    1
    29    27     5    1
    30    28    27    1
    31    29    28    1
    32    30    29    1
    33    31    30    1
    34    32    31    1
    35    32    27    1
    36    11    33    1
