@<TRIPOS>MOLECULE
*****
 15 16 0 0 0
SMALL
GASTEIGER

@<TRIPOS>ATOM
      1 O           5.9780   -4.1290   19.6390 O.2     1  UNL1       -0.2749
      2 C           6.6750   -3.1330   19.7150 C.2     1  UNL1        0.2262
      3 C           7.2630   -2.5200   18.4620 C.3     1  UNL1        0.0948
      4 N           7.0480   -2.6070   20.8980 N.am    1  UNL1       -0.2767
      5 C           7.8600   -1.3960   21.0520 C.3     1  UNL1        0.1107
      6 C           9.1660   -1.7570   21.7220 C.3     1  UNL1        0.0942
      7 N           8.9170   -2.3680   23.0420 N.3     1  UNL1       -0.2656
      8 C           8.0910   -3.5830   22.8920 C.3     1  UNL1        0.0942
      9 C           6.7760   -3.2660   22.1800 C.3     1  UNL1        0.1107
     10 C          10.1760   -2.6820   23.7220 C.3     1  UNL1        0.1057
     11 C          11.1660   -1.5550   23.7080 C.ar    1  UNL1        0.0234
     12 S          11.0820   -0.2960   24.8470 S.2     1  UNL1       -0.0894
     13 C          12.4180    0.5090   24.1560 C.ar    1  UNL1        0.0352
     14 C          12.9350   -0.1470   23.0960 C.ar    1  UNL1        0.0072
     15 C          12.2410   -1.3480   22.7980 C.ar    1  UNL1        0.0041
@<TRIPOS>BOND
     1     2     1    2
     2     3     2    1
     3     4     2   am
     4     5     4    1
     5     6     5    1
     6     7     6    1
     7     8     7    1
     8     9     4    1
     9     9     8    1
    10    10     7    1
    11    11    10    1
    12    12    11   ar
    13    13    12   ar
    14    14    13   ar
    15    15    14   ar
    16    15    11   ar
