@<TRIPOS>MOLECULE
*****
 25 28 0 0 0
SMALL
GASTEIGER

@<TRIPOS>ATOM
      1 O           9.1720    1.2840   21.0240 O.2     1  UNL1       -0.2726
      2 C           8.6720    0.2590   21.4880 C.2     1  UNL1        0.2495
      3 C           9.2930   -0.4590   22.6850 C.3     1  UNL1        0.1072
      4 C          10.7950   -0.3150   22.8210 C.ar    1  UNL1        0.0212
      5 C          11.6680   -1.0980   22.0670 C.ar    1  UNL1        0.0106
      6 C          13.0260   -0.8500   22.1090 C.ar    1  UNL1        0.0576
      7 CL         14.0670   -1.6630   20.9720 Cl      1  UNL1       -0.0823
      8 C          13.5590    0.1180   22.9340 C.ar    1  UNL1        0.0145
      9 C          12.7120    0.8890   23.7090 C.ar    1  UNL1        0.0374
     10 C          11.3430    0.6720   23.6480 C.ar    1  UNL1        0.1350
     11 O          10.5740    1.4480   24.4820 O.3     1  UNL1       -0.4757
     12 C           9.1490    1.4550   24.2810 C.3     1  UNL1        0.2061
     13 C           8.5890    0.0860   23.9510 C.3     1  UNL1        0.0566
     14 C           8.7320   -0.8670   25.1380 C.3     1  UNL1        0.0047
     15 N           7.5500   -0.3180   20.9960 N.am    1  UNL1       -0.1774
     16 C           6.7660    0.1160   19.9040 C.ar    1  UNL1        0.0925
     17 C           5.5940    0.8910   20.1680 C.ar    1  UNL1        0.0184
     18 C           5.1100    1.1750   21.4720 C.ar    1  UNL1        0.0014
     19 C           4.0080    1.9610   21.6580 C.ar    1  UNL1        0.0000
     20 C           3.3310    2.4980   20.5720 C.ar    1  UNL1        0.0001
     21 C           3.7530    2.2480   19.2970 C.ar    1  UNL1        0.0016
     22 C           4.8920    1.4400   19.0600 C.ar    1  UNL1        0.0204
     23 C           5.3910    1.1680   17.7640 C.ar    1  UNL1        0.0989
     24 N           6.4720    0.4410   17.5190 N.ar    1  UNL1       -0.2410
     25 C           7.1260   -0.0690   18.5700 C.ar    1  UNL1        0.1154
@<TRIPOS>BOND
     1     2     1    2
     2     3     2    1
     3     4     3    1
     4     5     4   ar
     5     6     5   ar
     6     7     6    1
     7     8     6   ar
     8     9     8   ar
     9    10     4   ar
    10    10     9   ar
    11    11    10    1
    12    12    11    1
    13    13    12    1
    14    13     3    1
    15    13    14    1
    16    15     2   am
    17    16    15    1
    18    17    16   ar
    19    18    17   ar
    20    19    18   ar
    21    20    19   ar
    22    21    20   ar
    23    22    21   ar
    24    22    17   ar
    25    23    22   ar
    26    24    23   ar
    27    25    24   ar
    28    25    16   ar
