@<TRIPOS>MOLECULE
*****
 18 19 0 0 0
SMALL
GASTEIGER

@<TRIPOS>ATOM
      1 C          10.5130    0.7520   22.9580 C.ar    1  UNL1        0.0167
      2 N           6.3510    0.5570   17.4010 N.ar    1  UNL1       -0.2427
      3 C          12.6510   -0.9380   22.5880 C.ar    1  UNL1        0.0590
      4 C           5.2070    1.0020   19.9160 C.ar    1  UNL1       -0.0223
      5 C          12.8630    0.2950   23.1710 C.ar    1  UNL1        0.0115
      6 C           4.5980    1.3070   21.2610 C.3     1  UNL1        0.0308
      7 C          10.3320   -0.4670   22.3130 C.ar    1  UNL1        0.0742
      8 C           4.7620    1.6830   18.7880 C.ar    1  UNL1        0.0161
      9 N           9.0730   -0.8260   21.7920 N.am    1  UNL1       -0.1789
     10 C           6.8270   -0.6690   20.9380 C.3     1  UNL1        0.1147
     11 O           8.3730    1.1660   20.9490 O.2     1  UNL1       -0.2726
     12 C           6.2460    0.0710   19.7560 C.ar    1  UNL1        0.0022
     13 C           8.1650   -0.0140   21.2160 C.2     1  UNL1        0.2500
     14 C           6.7600   -0.1100   18.4840 C.ar    1  UNL1        0.0948
     15 C          11.7800    1.1340   23.3690 C.ar    1  UNL1        0.0022
     16 C          11.4080   -1.3280   22.1350 C.ar    1  UNL1        0.0280
     17 C           5.3640    1.4440   17.5690 C.ar    1  UNL1        0.0985
     18 CL         13.9480   -2.0930   22.5680 Cl      1  UNL1       -0.0822
@<TRIPOS>BOND
     1     5     3   ar
     2     6     4    1
     3     7     1   ar
     4     8     4   ar
     5     9     7    1
     6    12     4   ar
     7    12    10    1
     8    13    11    2
     9    13    10    1
    10    13     9   am
    11    14    12   ar
    12    14     2   ar
    13    15     1   ar
    14    15     5   ar
    15    16     7   ar
    16    16     3   ar
    17    17     8   ar
    18    17     2   ar
    19    18     3    1
