
     RDKit          3D

 33 37  0  0  0  0  0  0  0  0999 V2000
    8.5890    6.8140   22.7530 N   0  0  0  0  0  0  0  0  0  0  0  0
    7.9200    5.8930   22.7790 C   0  0  0  0  0  0  0  0  0  0  0  0
    7.0190    4.7340   22.7720 C   0  0  1  0  0  0  0  0  0  0  0  0
    5.6630    4.9190   23.4130 C   0  0  0  0  0  0  0  0  0  0  0  0
    5.7680    4.8930   21.9370 C   0  0  0  0  0  0  0  0  0  0  0  0
    7.7040    3.3720   22.8130 C   0  0  0  0  0  0  0  0  0  0  0  0
    7.9470    2.6390   24.4210 S   0  0  2  0  0  0  0  0  0  0  0  0
    6.7210    2.0360   24.8430 O   0  0  0  0  0  0  0  0  0  0  0  0
    8.5620    3.6200   25.2570 O   0  0  0  0  0  0  0  0  0  0  0  0
    9.0230    1.4380   24.2140 N   0  0  0  0  0  0  0  0  0  0  0  0
   10.4250    1.7000   24.5550 C   0  0  0  0  0  0  0  0  0  0  0  0
    8.6590    0.0100   24.1730 C   0  0  0  0  0  0  0  0  0  0  0  0
    9.3690   -0.5820   22.9530 C   0  0  2  0  0  0  0  0  0  0  0  0
   10.8590   -0.2760   22.9960 C   0  0  0  0  0  0  0  0  0  0  0  0
   11.3280    0.8570   23.6850 C   0  0  0  0  0  0  0  0  0  0  0  0
   12.6760    1.2020   23.5940 C   0  0  0  0  0  0  0  0  0  0  0  0
   13.5610    0.4410   22.8570 C   0  0  0  0  0  0  0  0  0  0  0  0
   11.7670   -1.0600   22.2800 C   0  0  0  0  0  0  0  0  0  0  0  0
   13.0990   -0.6840   22.2170 C   0  0  0  0  0  0  0  0  0  0  0  0
   14.2060   -1.6280   21.2570 Cl  0  0  0  0  0  0  0  0  0  0  0  0
    8.7490    0.0680   21.7110 C   0  0  0  0  0  0  0  0  0  0  0  0
    9.2570    1.0440   21.1710 O   0  0  0  0  0  0  0  0  0  0  0  0
    7.5810   -0.4860   21.2870 N   0  0  0  0  0  0  0  0  0  0  0  0
    6.7780   -0.0610   20.1980 C   0  0  0  0  0  0  0  0  0  0  0  0
    5.6080    0.7270   20.4530 C   0  0  0  0  0  0  0  0  0  0  0  0
    5.0780    0.9610   21.7490 C   0  0  0  0  0  0  0  0  0  0  0  0
    3.9490    1.7110   21.9230 C   0  0  0  0  0  0  0  0  0  0  0  0
    3.2910    2.2680   20.8320 C   0  0  0  0  0  0  0  0  0  0  0  0
    3.7610    2.0730   19.5650 C   0  0  0  0  0  0  0  0  0  0  0  0
    4.9250    1.2960   19.3380 C   0  0  0  0  0  0  0  0  0  0  0  0
    5.4380    1.0330   18.0430 C   0  0  0  0  0  0  0  0  0  0  0  0
    6.5060    0.2860   17.8050 N   0  0  0  0  0  0  0  0  0  0  0  0
    7.1450   -0.2390   18.8610 C   0  0  0  0  0  0  0  0  0  0  0  0
  2  1  3  0
  3  2  1  6
  4  3  1  0
  5  4  1  0
  5  3  1  0
  6  3  1  0
  7  6  1  6
  8  7  2  0
  9  7  2  0
 10  7  1  0
 11 10  1  0
 12 10  1  0
 13 12  1  0
 14 13  1  0
 15 14  2  0
 15 11  1  0
 16 15  1  0
 17 16  2  0
 18 14  1  0
 19 18  2  0
 19 17  1  0
 20 19  1  0
 13 21  1  6
 22 21  2  0
 23 21  1  0
 24 23  1  0
 25 24  1  0
 26 25  2  0
 27 26  1  0
 28 27  2  0
 29 28  1  0
 30 29  2  0
 30 25  1  0
 31 30  1  0
 32 31  2  0
 33 32  1  0
 33 24  2  0
M  END
