@<TRIPOS>MOLECULE
*****
 33 37 0 0 0
SMALL
GASTEIGER

@<TRIPOS>ATOM
      1 N           8.5890    6.8140   22.7530 N.1     1  UNL1       -0.1959
      2 C           7.9200    5.8930   22.7790 C.1     1  UNL1        0.0729
      3 C           7.0190    4.7340   22.7720 C.3     1  UNL1        0.1029
      4 C           5.6630    4.9190   23.4130 C.3     1  UNL1        0.0170
      5 C           5.7680    4.8930   21.9370 C.3     1  UNL1        0.0170
      6 C           7.7040    3.3720   22.8130 C.3     1  UNL1        0.1830
      7 S           7.9470    2.6390   24.4210 S.O2    1  UNL1        0.0452
      8 O           6.7210    2.0360   24.8430 O.2     1  UNL1       -0.1572
      9 O           8.5620    3.6200   25.2570 O.2     1  UNL1       -0.1572
     10 N           9.0230    1.4380   24.2140 N.3     1  UNL1       -0.1541
     11 C          10.4250    1.7000   24.5550 C.3     1  UNL1        0.1214
     12 C           8.6590    0.0100   24.1730 C.3     1  UNL1        0.1093
     13 C           9.3690   -0.5820   22.9530 C.3     1  UNL1        0.1182
     14 C          10.8590   -0.2760   22.9960 C.ar    1  UNL1       -0.0142
     15 C          11.3280    0.8570   23.6850 C.ar    1  UNL1       -0.0079
     16 C          12.6760    1.2020   23.5940 C.ar    1  UNL1       -0.0023
     17 C          13.5610    0.4410   22.8570 C.ar    1  UNL1        0.0111
     18 C          11.7670   -1.0600   22.2800 C.ar    1  UNL1        0.0074
     19 C          13.0990   -0.6840   22.2170 C.ar    1  UNL1        0.0574
     20 CL         14.2060   -1.6280   21.2570 Cl      1  UNL1       -0.0823
     21 C           8.7490    0.0680   21.7110 C.2     1  UNL1        0.2507
     22 O           9.2570    1.0440   21.1710 O.2     1  UNL1       -0.2726
     23 N           7.5810   -0.4860   21.2870 N.am    1  UNL1       -0.1773
     24 C           6.7780   -0.0610   20.1980 C.ar    1  UNL1        0.0925
     25 C           5.6080    0.7270   20.4530 C.ar    1  UNL1        0.0184
     26 C           5.0780    0.9610   21.7490 C.ar    1  UNL1        0.0014
     27 C           3.9490    1.7110   21.9230 C.ar    1  UNL1        0.0000
     28 C           3.2910    2.2680   20.8320 C.ar    1  UNL1        0.0001
     29 C           3.7610    2.0730   19.5650 C.ar    1  UNL1        0.0016
     30 C           4.9250    1.2960   19.3380 C.ar    1  UNL1        0.0204
     31 C           5.4380    1.0330   18.0430 C.ar    1  UNL1        0.0989
     32 N           6.5060    0.2860   17.8050 N.ar    1  UNL1       -0.2410
     33 C           7.1450   -0.2390   18.8610 C.ar    1  UNL1        0.1154
@<TRIPOS>BOND
     1     2     1    3
     2     3     2    1
     3     4     3    1
     4     5     4    1
     5     5     3    1
     6     6     3    1
     7     7     6    1
     8     8     7    2
     9     9     7    2
    10    10     7    1
    11    11    10    1
    12    12    10    1
    13    13    12    1
    14    14    13    1
    15    15    14   ar
    16    15    11    1
    17    16    15   ar
    18    17    16   ar
    19    18    14   ar
    20    19    18   ar
    21    19    17   ar
    22    20    19    1
    23    13    21    1
    24    22    21    2
    25    23    21   am
    26    24    23    1
    27    25    24   ar
    28    26    25   ar
    29    27    26   ar
    30    28    27   ar
    31    29    28   ar
    32    30    29   ar
    33    30    25   ar
    34    31    30   ar
    35    32    31   ar
    36    33    32   ar
    37    33    24   ar
