@<TRIPOS>MOLECULE
*****
 27 30 0 0 0
SMALL
GASTEIGER

@<TRIPOS>ATOM
      1 CL         14.0580   -1.6590   21.1910 Cl      1  UNL1       -0.0823
      2 C          12.8770   -0.8860   22.2150 C.ar    1  UNL1        0.0576
      3 C          13.2750    0.1590   23.0330 C.ar    1  UNL1        0.0145
      4 C          12.3310    0.8330   23.7900 C.ar    1  UNL1        0.0374
      5 C          11.0080    0.4350   23.7020 C.ar    1  UNL1        0.1352
      6 O           9.9400    0.9320   24.4150 O.3     1  UNL1       -0.4749
      7 C           8.7370    0.1930   24.0730 C.3     1  UNL1        0.2189
      8 C          11.5510   -1.2760   22.1230 C.ar    1  UNL1        0.0107
      9 C          10.5990   -0.5760   22.8580 C.ar    1  UNL1        0.0246
     10 C           9.0860   -0.5980   22.8160 C.3     1  UNL1        0.1461
     11 C           8.3930   -0.0560   21.5670 C.2     1  UNL1        0.2426
     12 O           8.7610    0.9720   21.0200 O.2     1  UNL1       -0.2737
     13 N           7.3340   -0.8110   21.0040 N.am    1  UNL1       -0.2063
     14 C           6.8650   -2.0410   21.5340 C.2     1  UNL1        0.2352
     15 O           7.2890   -2.4820   22.6060 O.2     1  UNL1       -0.2741
     16 C           5.8370   -2.7940   20.7540 C.3     1  UNL1        0.0860
     17 C           6.5040   -3.9830   20.0130 C.3     1  UNL1        0.0101
     18 C           6.6350   -0.2150   19.8770 C.ar    1  UNL1        0.0797
     19 C           7.0900   -0.3650   18.5680 C.ar    1  UNL1        0.1141
     20 N           6.5710    0.2700   17.5060 N.ar    1  UNL1       -0.2410
     21 C           5.5600    1.1000   17.7230 C.ar    1  UNL1        0.0989
     22 C           5.0070    1.3730   19.0000 C.ar    1  UNL1        0.0204
     23 C           5.5630    0.6970   20.1220 C.ar    1  UNL1        0.0171
     24 C           3.9520    2.3000   19.2080 C.ar    1  UNL1        0.0016
     25 C           3.4770    2.5450   20.4650 C.ar    1  UNL1        0.0001
     26 C           4.0170    1.8910   21.5640 C.ar    1  UNL1        0.0000
     27 C           5.0350    0.9910   21.4090 C.ar    1  UNL1        0.0013
@<TRIPOS>BOND
     1     2     1    1
     2     3     2   ar
     3     4     3   ar
     4     5     4   ar
     5     6     5    1
     6     7     6    1
     7     8     2   ar
     8     9     8   ar
     9     9     5   ar
    10    10     9    1
    11    10     7    1
    12    10    11    1
    13    12    11    2
    14    13    11   am
    15    14    13   am
    16    15    14    2
    17    16    14    1
    18    17    16    1
    19    18    13    1
    20    19    18   ar
    21    20    19   ar
    22    21    20   ar
    23    22    21   ar
    24    23    22   ar
    25    23    18   ar
    26    24    22   ar
    27    25    24   ar
    28    26    25   ar
    29    27    26   ar
    30    27    23   ar
