@<TRIPOS>MOLECULE
*****
 22 24 0 0 0
SMALL
GASTEIGER

@<TRIPOS>ATOM
      1 O           6.0050   -4.2640   19.5820 O.2     1  UNL1       -0.2749
      2 C           6.6070   -3.2030   19.6480 C.2     1  UNL1        0.2262
      3 C           7.1580   -2.5300   18.4040 C.3     1  UNL1        0.0948
      4 N           6.8500   -2.5930   20.8250 N.am    1  UNL1       -0.2767
      5 C           7.6690   -1.3920   20.9940 C.3     1  UNL1        0.1108
      6 C           8.9450   -1.7740   21.7010 C.3     1  UNL1        0.0944
      7 N           8.6440   -2.3920   23.0090 N.3     1  UNL1       -0.2638
      8 C           7.7380   -3.5530   22.8740 C.3     1  UNL1        0.0944
      9 C           6.4790   -3.1870   22.1110 C.3     1  UNL1        0.1108
     10 C           9.9000   -2.7820   23.6960 C.3     1  UNL1        0.1031
     11 C          10.9340   -1.6600   23.6930 C.ar    1  UNL1       -0.0036
     12 C          10.9020   -0.6490   24.6470 C.ar    1  UNL1       -0.0026
     13 C          11.8520    0.3620   24.6400 C.ar    1  UNL1       -0.0003
     14 C          12.8450    0.3790   23.6720 C.ar    1  UNL1       -0.0000
     15 C          12.8790   -0.6120   22.7060 C.ar    1  UNL1       -0.0003
     16 C          11.9340   -1.6290   22.7210 C.ar    1  UNL1       -0.0026
     17 C           9.6420   -3.5100   25.0150 C.ar    1  UNL1       -0.0036
     18 C          10.1810   -4.7760   25.2220 C.ar    1  UNL1       -0.0026
     19 C           9.8670   -5.5020   26.3600 C.ar    1  UNL1       -0.0003
     20 C           9.0190   -4.9690   27.3140 C.ar    1  UNL1       -0.0000
     21 C           8.4930   -3.7040   27.1330 C.ar    1  UNL1       -0.0003
     22 C           8.8080   -2.9750   25.9920 C.ar    1  UNL1       -0.0026
@<TRIPOS>BOND
     1     2     1    2
     2     3     2    1
     3     4     2   am
     4     5     4    1
     5     6     5    1
     6     7     6    1
     7     8     7    1
     8     9     4    1
     9     9     8    1
    10    10     7    1
    11    10    11    1
    12    12    11   ar
    13    13    12   ar
    14    14    13   ar
    15    15    14   ar
    16    16    15   ar
    17    16    11   ar
    18    17    10    1
    19    18    17   ar
    20    19    18   ar
    21    20    19   ar
    22    21    20   ar
    23    22    21   ar
    24    22    17   ar
