@<TRIPOS>MOLECULE
*****
 22 24 0 0 0
SMALL
GASTEIGER

@<TRIPOS>ATOM
      1 O           9.3540    0.9450   21.1200 O.2     1  UNL1       -0.2726
      2 C           8.8330   -0.0960   21.5260 C.2     1  UNL1        0.2500
      3 C           9.4580   -0.9340   22.6240 C.3     1  UNL1        0.1136
      4 C          10.9300   -0.6360   22.7850 C.ar    1  UNL1       -0.0086
      5 C          11.8680   -1.3060   22.0080 C.ar    1  UNL1        0.0260
      6 C          13.1910   -0.9600   22.1210 C.ar    1  UNL1        0.1421
      7 F          14.0780   -1.5390   21.2650 F       1  UNL1       -0.2041
      8 C          13.6560   -0.0070   22.9950 C.ar    1  UNL1        0.0592
      9 C          11.3590    0.3370   23.6840 C.ar    1  UNL1        0.0260
     10 C          12.7030    0.6130   23.7680 C.ar    1  UNL1        0.1421
     11 F          13.1170    1.5280   24.6870 F       1  UNL1       -0.2041
     12 N           7.6800   -0.5920   21.0370 N.am    1  UNL1       -0.1773
     13 C           6.9030   -0.0720   19.9890 C.ar    1  UNL1        0.0925
     14 C           5.7580    0.7110   20.3190 C.ar    1  UNL1        0.0184
     15 C           5.3140    0.9410   21.6490 C.ar    1  UNL1        0.0014
     16 C           4.2390    1.7470   21.9010 C.ar    1  UNL1        0.0000
     17 C           3.5530    2.3570   20.8610 C.ar    1  UNL1        0.0001
     18 C           3.9350    2.1590   19.5630 C.ar    1  UNL1        0.0016
     19 C           5.0420    1.3320   19.2560 C.ar    1  UNL1        0.0204
     20 C           5.5040    1.1140   17.9360 C.ar    1  UNL1        0.0989
     21 N           6.5650    0.3770   17.6290 N.ar    1  UNL1       -0.2410
     22 C           7.2330   -0.1960   18.6390 C.ar    1  UNL1        0.1154
@<TRIPOS>BOND
     1     2     1    2
     2     3     2    1
     3     4     3    1
     4     5     4   ar
     5     6     5   ar
     6     7     6    1
     7     8     6   ar
     8     9     4   ar
     9    10     9   ar
    10    10     8   ar
    11    11    10    1
    12    12     2   am
    13    13    12    1
    14    14    13   ar
    15    15    14   ar
    16    16    15   ar
    17    17    16   ar
    18    18    17   ar
    19    19    18   ar
    20    19    14   ar
    21    20    19   ar
    22    21    20   ar
    23    22    21   ar
    24    22    13   ar
