@<TRIPOS>MOLECULE
*****
 27 30 0 0 0
SMALL
GASTEIGER

@<TRIPOS>ATOM
      1 CL         13.8420   -1.7470   21.5320 Cl      1  UNL1       -0.0823
      2 C          12.6420   -0.8550   22.4230 C.ar    1  UNL1        0.0576
      3 C          13.0480    0.1610   23.2680 C.ar    1  UNL1        0.0145
      4 C          12.1030    0.8490   24.0110 C.ar    1  UNL1        0.0374
      5 C          10.7730    0.4880   23.8840 C.ar    1  UNL1        0.1352
      6 O           9.7100    0.9960   24.5920 O.3     1  UNL1       -0.4749
      7 C           8.4910    0.3110   24.2020 C.3     1  UNL1        0.2189
      8 C          11.3090   -1.1920   22.2720 C.ar    1  UNL1        0.0107
      9 C          10.3600   -0.4940   23.0080 C.ar    1  UNL1        0.0246
     10 C           8.8460   -0.5350   22.9780 C.3     1  UNL1        0.1461
     11 C           8.1420   -0.1160   21.6890 C.2     1  UNL1        0.2426
     12 O           8.4640    0.8930   21.0820 O.2     1  UNL1       -0.2737
     13 N           7.1180   -0.9550   21.1780 N.am    1  UNL1       -0.2063
     14 C           6.7350   -2.1960   21.7620 C.2     1  UNL1        0.2352
     15 O           7.2200   -2.5710   22.8240 O.2     1  UNL1       -0.2741
     16 C           5.7020   -3.0260   21.0520 C.3     1  UNL1        0.0860
     17 C           6.3650   -4.1480   20.2070 C.3     1  UNL1        0.0101
     18 C           6.3810   -0.4590   20.0340 C.ar    1  UNL1        0.0797
     19 C           6.9120   -0.5550   18.7490 C.ar    1  UNL1        0.1141
     20 N           6.4800    0.1360   17.6850 N.ar    1  UNL1       -0.2410
     21 C           5.4680    0.9730   17.8680 C.ar    1  UNL1        0.0989
     22 C           4.8390    1.2010   19.1180 C.ar    1  UNL1        0.0204
     23 C           5.3090    0.4640   20.2440 C.ar    1  UNL1        0.0171
     24 C           3.7800    2.1280   19.2930 C.ar    1  UNL1        0.0016
     25 C           3.2160    2.3140   20.5230 C.ar    1  UNL1        0.0001
     26 C           3.6680    1.5950   21.6250 C.ar    1  UNL1        0.0000
     27 C           4.6850    0.6920   21.4990 C.ar    1  UNL1        0.0013
@<TRIPOS>BOND
     1     2     1    1
     2     3     2   ar
     3     4     3   ar
     4     5     4   ar
     5     6     5    1
     6     7     6    1
     7     8     2   ar
     8     9     5   ar
     9     9     8   ar
    10    10     9    1
    11    10     7    1
    12    10    11    1
    13    12    11    2
    14    13    11   am
    15    14    13   am
    16    15    14    2
    17    16    14    1
    18    17    16    1
    19    18    13    1
    20    19    18   ar
    21    20    19   ar
    22    21    20   ar
    23    22    21   ar
    24    23    22   ar
    25    23    18   ar
    26    24    22   ar
    27    25    24   ar
    28    26    25   ar
    29    27    26   ar
    30    27    23   ar
