
     RDKit          3D

 33 37  0  0  0  0  0  0  0  0999 V2000
    8.6850    7.0140   22.4410 N   0  0  0  0  0  0  0  0  0  0  0  0
    8.0050    6.1060   22.5350 C   0  0  0  0  0  0  0  0  0  0  0  0
    7.0830    4.9680   22.6790 C   0  0  1  0  0  0  0  0  0  0  0  0
    5.7670    5.2100   23.3830 C   0  0  0  0  0  0  0  0  0  0  0  0
    5.7880    5.0860   21.9090 C   0  0  0  0  0  0  0  0  0  0  0  0
    7.7490    3.6020   22.7490 C   0  0  0  0  0  0  0  0  0  0  0  0
    8.0530    2.9040   24.3590 S   0  0  2  0  0  0  0  0  0  0  0  0
    6.8330    2.3520   24.8610 O   0  0  0  0  0  0  0  0  0  0  0  0
    8.7480    3.8750   25.1410 O   0  0  0  0  0  0  0  0  0  0  0  0
    9.0750    1.6590   24.1120 N   0  0  0  0  0  0  0  0  0  0  0  0
   10.4890    1.8120   24.4720 C   0  0  0  0  0  0  0  0  0  0  0  0
    8.6040    0.2630   24.0650 C   0  0  0  0  0  0  0  0  0  0  0  0
    9.2720   -0.3730   22.8450 C   0  0  2  0  0  0  0  0  0  0  0  0
   10.7750   -0.1640   22.8820 C   0  0  0  0  0  0  0  0  0  0  0  0
   11.3390    0.8700   23.6470 C   0  0  0  0  0  0  0  0  0  0  0  0
   12.7230    1.0370   23.6450 C   0  0  0  0  0  0  0  0  0  0  0  0
   13.5440    0.2110   22.9010 C   0  0  0  0  0  0  0  0  0  0  0  0
   11.6080   -0.9990   22.1360 C   0  0  0  0  0  0  0  0  0  0  0  0
   12.9750   -0.7950   22.1560 C   0  0  0  0  0  0  0  0  0  0  0  0
   13.9940   -1.8000   21.1720 Cl  0  0  0  0  0  0  0  0  0  0  0  0
    8.7330    0.2580   21.5580 C   0  0  0  0  0  0  0  0  0  0  0  0
    9.2260    1.2720   21.0770 O   0  0  0  0  0  0  0  0  0  0  0  0
    7.6360   -0.3440   21.0500 N   0  0  0  0  0  0  0  0  0  0  0  0
    6.8230    0.1040   19.9840 C   0  0  0  0  0  0  0  0  0  0  0  0
    5.6500    0.8670   20.2920 C   0  0  0  0  0  0  0  0  0  0  0  0
    5.2090    1.1340   21.6150 C   0  0  0  0  0  0  0  0  0  0  0  0
    4.0970    1.8950   21.8430 C   0  0  0  0  0  0  0  0  0  0  0  0
    3.3720    2.4280   20.7830 C   0  0  0  0  0  0  0  0  0  0  0  0
    3.7500    2.1910   19.4920 C   0  0  0  0  0  0  0  0  0  0  0  0
    4.8940    1.4020   19.2100 C   0  0  0  0  0  0  0  0  0  0  0  0
    5.3430    1.1330   17.8940 C   0  0  0  0  0  0  0  0  0  0  0  0
    6.4280    0.4250   17.6090 N   0  0  0  0  0  0  0  0  0  0  0  0
    7.1320   -0.0730   18.6350 C   0  0  0  0  0  0  0  0  0  0  0  0
  2  1  3  0
  3  2  1  6
  4  3  1  0
  5  4  1  0
  5  3  1  0
  6  3  1  0
  7  6  1  6
  8  7  2  0
  9  7  2  0
 10  7  1  0
 11 10  1  0
 12 10  1  0
 13 12  1  0
 14 13  1  0
 15 14  2  0
 15 11  1  0
 16 15  1  0
 17 16  2  0
 18 14  1  0
 19 18  2  0
 19 17  1  0
 20 19  1  0
 13 21  1  6
 22 21  2  0
 23 21  1  0
 24 23  1  0
 25 24  1  0
 26 25  2  0
 27 26  1  0
 28 27  2  0
 29 28  1  0
 30 29  2  0
 30 25  1  0
 31 30  1  0
 32 31  2  0
 33 32  1  0
 33 24  2  0
M  END
