@<TRIPOS>MOLECULE
*****
 33 37 0 0 0
SMALL
GASTEIGER

@<TRIPOS>ATOM
      1 N           8.6850    7.0140   22.4410 N.1     1  UNL1       -0.1959
      2 C           8.0050    6.1060   22.5350 C.1     1  UNL1        0.0729
      3 C           7.0830    4.9680   22.6790 C.3     1  UNL1        0.1029
      4 C           5.7670    5.2100   23.3830 C.3     1  UNL1        0.0170
      5 C           5.7880    5.0860   21.9090 C.3     1  UNL1        0.0170
      6 C           7.7490    3.6020   22.7490 C.3     1  UNL1        0.1830
      7 S           8.0530    2.9040   24.3590 S.O2    1  UNL1        0.0452
      8 O           6.8330    2.3520   24.8610 O.2     1  UNL1       -0.1572
      9 O           8.7480    3.8750   25.1410 O.2     1  UNL1       -0.1572
     10 N           9.0750    1.6590   24.1120 N.3     1  UNL1       -0.1541
     11 C          10.4890    1.8120   24.4720 C.3     1  UNL1        0.1214
     12 C           8.6040    0.2630   24.0650 C.3     1  UNL1        0.1093
     13 C           9.2720   -0.3730   22.8450 C.3     1  UNL1        0.1182
     14 C          10.7750   -0.1640   22.8820 C.ar    1  UNL1       -0.0142
     15 C          11.3390    0.8700   23.6470 C.ar    1  UNL1       -0.0079
     16 C          12.7230    1.0370   23.6450 C.ar    1  UNL1       -0.0023
     17 C          13.5440    0.2110   22.9010 C.ar    1  UNL1        0.0111
     18 C          11.6080   -0.9990   22.1360 C.ar    1  UNL1        0.0074
     19 C          12.9750   -0.7950   22.1560 C.ar    1  UNL1        0.0574
     20 CL         13.9940   -1.8000   21.1720 Cl      1  UNL1       -0.0823
     21 C           8.7330    0.2580   21.5580 C.2     1  UNL1        0.2507
     22 O           9.2260    1.2720   21.0770 O.2     1  UNL1       -0.2726
     23 N           7.6360   -0.3440   21.0500 N.am    1  UNL1       -0.1773
     24 C           6.8230    0.1040   19.9840 C.ar    1  UNL1        0.0925
     25 C           5.6500    0.8670   20.2920 C.ar    1  UNL1        0.0184
     26 C           5.2090    1.1340   21.6150 C.ar    1  UNL1        0.0014
     27 C           4.0970    1.8950   21.8430 C.ar    1  UNL1        0.0000
     28 C           3.3720    2.4280   20.7830 C.ar    1  UNL1        0.0001
     29 C           3.7500    2.1910   19.4920 C.ar    1  UNL1        0.0016
     30 C           4.8940    1.4020   19.2100 C.ar    1  UNL1        0.0204
     31 C           5.3430    1.1330   17.8940 C.ar    1  UNL1        0.0989
     32 N           6.4280    0.4250   17.6090 N.ar    1  UNL1       -0.2410
     33 C           7.1320   -0.0730   18.6350 C.ar    1  UNL1        0.1154
@<TRIPOS>BOND
     1     2     1    3
     2     3     2    1
     3     4     3    1
     4     5     4    1
     5     5     3    1
     6     6     3    1
     7     7     6    1
     8     8     7    2
     9     9     7    2
    10    10     7    1
    11    11    10    1
    12    12    10    1
    13    13    12    1
    14    14    13    1
    15    15    14   ar
    16    15    11    1
    17    16    15   ar
    18    17    16   ar
    19    18    14   ar
    20    19    18   ar
    21    19    17   ar
    22    20    19    1
    23    13    21    1
    24    22    21    2
    25    23    21   am
    26    24    23    1
    27    25    24   ar
    28    26    25   ar
    29    27    26   ar
    30    28    27   ar
    31    29    28   ar
    32    30    29   ar
    33    30    25   ar
    34    31    30   ar
    35    32    31   ar
    36    33    32   ar
    37    33    24   ar
