@<TRIPOS>MOLECULE
*****
 25 28 0 0 0
SMALL
GASTEIGER

@<TRIPOS>ATOM
      1 O           8.5270    0.8710   21.0940 O.2     1  UNL1       -0.2742
      2 C           8.0850   -0.2470   21.3110 C.2     1  UNL1        0.2330
      3 C           8.9020   -1.3010   22.0410 C.3     1  UNL1        0.0993
      4 C          10.2490   -0.7980   22.5330 C.ar    1  UNL1       -0.0130
      5 C          10.3540    0.2240   23.4670 C.ar    1  UNL1       -0.0029
      6 C          11.5900    0.7120   23.8440 C.ar    1  UNL1        0.0119
      7 C          11.4100   -1.3560   22.0140 C.ar    1  UNL1        0.0084
      8 C          12.6470   -0.8820   22.4020 C.ar    1  UNL1        0.0679
      9 CL         14.0710   -1.6490   21.7770 Cl      1  UNL1       -0.0814
     10 C          12.7400    0.1670   23.3020 C.ar    1  UNL1        0.0682
     11 CL         14.2710    0.8500   23.7220 Cl      1  UNL1       -0.0814
     12 N           6.8440   -0.6270   20.8830 N.am    1  UNL1       -0.2569
     13 C           6.0120   -1.6450   21.5570 C.3     1  UNL1        0.0983
     14 C           6.8150   -2.6440   22.3910 C.3     1  UNL1        0.0227
     15 C           8.0170   -1.9960   23.0760 C.3     1  UNL1        0.0153
     16 C           6.1870    0.1050   19.8440 C.ar    1  UNL1        0.0730
     17 C           5.1160    1.0240   20.0660 C.ar    1  UNL1        0.0167
     18 C           4.5940    1.3490   21.3470 C.ar    1  UNL1        0.0013
     19 C           3.5640    2.2360   21.4840 C.ar    1  UNL1        0.0000
     20 C           3.0000    2.8390   20.3720 C.ar    1  UNL1        0.0001
     21 C           3.4680    2.5660   19.1190 C.ar    1  UNL1        0.0016
     22 C           4.5420    1.6610   18.9310 C.ar    1  UNL1        0.0204
     23 C           5.0900    1.3630   17.6580 C.ar    1  UNL1        0.0989
     24 N           6.0980    0.5280   17.4580 N.ar    1  UNL1       -0.2410
     25 C           6.6130   -0.0800   18.5340 C.ar    1  UNL1        0.1137
@<TRIPOS>BOND
     1     2     1    2
     2     3     2    1
     3     3     4    1
     4     5     4   ar
     5     6     5   ar
     6     7     4   ar
     7     8     7   ar
     8     9     8    1
     9    10     8   ar
    10    10     6   ar
    11    11    10    1
    12    12     2   am
    13    13    12    1
    14    14    13    1
    15    15    14    1
    16    15     3    1
    17    16    12    1
    18    17    16   ar
    19    18    17   ar
    20    19    18   ar
    21    20    19   ar
    22    21    20   ar
    23    22    21   ar
    24    22    17   ar
    25    23    22   ar
    26    24    23   ar
    27    25    24   ar
    28    25    16   ar
