@<TRIPOS>MOLECULE
*****
 27 29 0 0 0
SMALL
GASTEIGER

@<TRIPOS>ATOM
      1 O           6.5400    0.9690   16.8750 O.2     1  UNL1       -0.2652
      2 C           5.9150    0.7280   17.9110 C.ar    1  UNL1        0.2794
      3 C           6.2860   -0.2820   18.8360 C.ar    1  UNL1        0.0672
      4 N           4.8550    1.5160   18.2780 N.ar    1  UNL1       -0.2078
      5 C           4.2050    1.4360   19.5030 C.ar    1  UNL1        0.0876
      6 C           4.6400    0.4840   20.4520 C.ar    1  UNL1        0.0563
      7 C           4.0540    0.5130   21.7340 C.ar    1  UNL1        0.1402
      8 O           4.5770   -0.3700   22.6400 O.3     1  UNL1       -0.4714
      9 C           4.0000   -0.4130   23.9440 C.3     1  UNL1        0.2525
     10 C           3.0370    1.4140   22.0250 C.ar    1  UNL1        0.0370
     11 C           2.5940    2.2980   21.0570 C.ar    1  UNL1        0.0047
     12 C           3.1760    2.3220   19.8030 C.ar    1  UNL1        0.0194
     13 C           5.7070   -0.4440   20.0510 C.ar    1  UNL1        0.0642
     14 C           6.1220   -1.6250   20.8630 C.2     1  UNL1        0.2652
     15 O           5.4040   -2.6180   20.9560 O.2     1  UNL1       -0.2684
     16 N           7.2920   -1.5240   21.4980 N.am    1  UNL1       -0.1977
     17 C           7.7220   -2.4870   22.4990 C.3     1  UNL1        0.1626
     18 C           9.2080   -2.4740   22.6900 C.3     1  UNL1        0.2289
     19 O           9.6310   -1.1020   22.7410 O.3     1  UNL1       -0.4705
     20 C          10.9760   -0.8300   22.8030 C.ar    1  UNL1        0.1723
     21 C          11.3170    0.4150   23.3680 C.ar    1  UNL1        0.1724
     22 O          10.2570    1.1770   23.7820 O.3     1  UNL1       -0.4684
     23 C          10.4990    2.5500   24.0960 C.3     1  UNL1        0.2526
     24 C          11.9700   -1.6540   22.2950 C.ar    1  UNL1        0.0400
     25 C          13.2890   -1.2300   22.3150 C.ar    1  UNL1        0.0033
     26 C          13.6250   -0.0090   22.8670 C.ar    1  UNL1        0.0033
     27 C          12.6480    0.8120   23.4100 C.ar    1  UNL1        0.0400
@<TRIPOS>BOND
     1     2     1    2
     2     3     2   ar
     3     4     2   ar
     4     5     4   ar
     5     6     5   ar
     6     7     6   ar
     7     8     7    1
     8     9     8    1
     9    10     7   ar
    10    11    10   ar
    11    12    11   ar
    12    12     5   ar
    13    13     6   ar
    14    13     3   ar
    15    14    13    1
    16    15    14    2
    17    16    14   am
    18    17    16    1
    19    18    17    1
    20    19    18    1
    21    20    19    1
    22    21    20   ar
    23    22    21    1
    24    23    22    1
    25    24    20   ar
    26    25    24   ar
    27    26    25   ar
    28    27    26   ar
    29    27    21   ar
