@<TRIPOS>MOLECULE
*****
 20 22 0 0 0
SMALL
GASTEIGER

@<TRIPOS>ATOM
      1 O           8.9050    0.4800   21.1080 O.2     1  UNL1       -0.2726
      2 C           8.1910   -0.4490   21.4910 C.2     1  UNL1        0.2500
      3 N           7.0250   -0.7850   20.9100 N.am    1  UNL1       -0.1777
      4 C           6.4240   -0.0720   19.8560 C.ar    1  UNL1        0.0885
      5 C           6.9200   -0.1540   18.5540 C.ar    1  UNL1        0.1151
      6 N           6.4170    0.5490   17.5350 N.ar    1  UNL1       -0.2410
      7 C           5.3760    1.3480   17.7920 C.ar    1  UNL1        0.0987
      8 C           4.8030    1.4780   19.0430 C.ar    1  UNL1        0.0177
      9 C           5.3360    0.7780   20.1190 C.ar    1  UNL1       -0.0034
     10 C           4.8130    0.9980   21.5170 C.3     1  UNL1        0.0325
     11 C           8.5330   -1.2790   22.7120 C.3     1  UNL1        0.1134
     12 C           9.7370   -0.6870   23.3990 C.ar    1  UNL1       -0.0133
     13 C          11.0140   -1.0070   22.9550 C.ar    1  UNL1       -0.0081
     14 C          12.1330   -0.3330   23.4220 C.ar    1  UNL1       -0.0228
     15 C          13.5040   -0.7180   22.9170 C.3     1  UNL1        0.0223
     16 C          13.6730   -1.3870   21.5850 C.3     1  UNL1        0.0047
     17 C          13.9130   -2.1580   22.8200 C.3     1  UNL1        0.0047
     18 C          11.9640    0.6750   24.3600 C.ar    1  UNL1       -0.0043
     19 C          10.7040    0.9800   24.8450 C.ar    1  UNL1       -0.0006
     20 C           9.5970    0.2940   24.3700 C.ar    1  UNL1       -0.0038
@<TRIPOS>BOND
     1     2     1    2
     2     3     2   am
     3     4     3    1
     4     5     4   ar
     5     6     5   ar
     6     7     6   ar
     7     8     7   ar
     8     9     8   ar
     9     9     4   ar
    10    10     9    1
    11    11     2    1
    12    12    11    1
    13    13    12   ar
    14    14    13   ar
    15    15    14    1
    16    16    15    1
    17    17    16    1
    18    17    15    1
    19    18    14   ar
    20    19    18   ar
    21    20    19   ar
    22    20    12   ar
