@<TRIPOS>MOLECULE
*****
 37 40 0 0 0
SMALL
GASTEIGER

@<TRIPOS>ATOM
      1 O           5.4050   -2.0250   21.3030 O.2     1  UNL1       -0.2662
      2 C           6.5560   -2.2120   21.6600 C.2     1  UNL1        0.2880
      3 C           6.9080   -3.6140   22.0570 C.ar    1  UNL1        0.1990
      4 O           7.9730   -3.9810   22.8290 O.2     1  UNL1       -0.4458
      5 C           7.8550   -5.3440   23.0180 C.ar    1  UNL1        0.1798
      6 C           6.7810   -5.8120   22.4020 C.ar    1  UNL1        0.0440
      7 C           6.1570   -4.7020   21.7700 C.ar    1  UNL1        0.0455
      8 N           7.4650   -1.2120   21.7730 N.am    1  UNL1       -0.2419
      9 C           8.7650   -1.3720   22.3680 C.ar    1  UNL1        0.0549
     10 C           8.9260   -1.2440   23.7460 C.ar    1  UNL1        0.0146
     11 C          10.1880   -1.2990   24.3070 C.ar    1  UNL1       -0.0030
     12 C           9.8900   -1.5770   21.5720 C.ar    1  UNL1        0.0146
     13 C          11.1500   -1.6410   22.1470 C.ar    1  UNL1       -0.0030
     14 C          11.3190   -1.5120   23.5250 C.ar    1  UNL1       -0.0227
     15 C          12.6920   -1.6410   24.2020 C.3     1  UNL1        0.0189
     16 C          12.6830   -2.8400   25.1580 C.3     1  UNL1        0.0044
     17 C          12.9930   -0.3750   25.0180 C.3     1  UNL1        0.0044
     18 C          13.8450   -1.8420   23.2000 C.3     1  UNL1        0.0044
     19 C           7.0170    0.1690   21.4670 C.3     1  UNL1        0.1820
     20 C           6.3650    0.3060   20.0990 C.ar    1  UNL1        0.0241
     21 C           6.9860   -0.1460   18.9400 C.ar    1  UNL1        0.0967
     22 N           6.5820    0.1630   17.7000 N.ar    1  UNL1       -0.2426
     23 C           5.4960    0.9350   17.5830 C.ar    1  UNL1        0.0989
     24 C           4.7870    1.4140   18.6680 C.ar    1  UNL1        0.0204
     25 C           5.2310    1.0850   19.9370 C.ar    1  UNL1        0.0010
     26 C           8.1090    1.2340   21.6690 C.2     1  UNL1        0.2642
     27 O           9.0110    1.3720   20.8530 O.2     1  UNL1       -0.2712
     28 N           7.9660    1.9960   22.7520 N.am    1  UNL1       -0.2034
     29 C           8.9280    3.0370   23.0930 C.3     1  UNL1        0.1199
     30 C          10.2850    2.4460   23.4790 C.3     1  UNL1        0.0498
     31 C          11.3880    3.4770   23.5410 C.ar    1  UNL1       -0.0182
     32 C          12.1540    3.7520   22.4130 C.ar    1  UNL1        0.0254
     33 C          13.1280    4.7180   22.4890 C.ar    1  UNL1        0.1398
     34 F          13.8260    5.0150   21.3630 F       1  UNL1       -0.2042
     35 C          13.4030    5.4210   23.6300 C.ar    1  UNL1        0.0296
     36 C          12.6440    5.1430   24.7560 C.ar    1  UNL1        0.0020
     37 C          11.6460    4.1800   24.7120 C.ar    1  UNL1       -0.0041
@<TRIPOS>BOND
     1     2     1    2
     2     3     2    1
     3     4     3   ar
     4     5     4   ar
     5     6     5   ar
     6     7     6   ar
     7     7     3   ar
     8     8     2   am
     9     9     8    1
    10    10     9   ar
    11    11    10   ar
    12    12     9   ar
    13    13    12   ar
    14    14    11   ar
    15    14    13   ar
    16    15    14    1
    17    15    16    1
    18    17    15    1
    19    18    15    1
    20    19     8    1
    21    20    19    1
    22    21    20   ar
    23    22    21   ar
    24    23    22   ar
    25    24    23   ar
    26    25    24   ar
    27    25    20   ar
    28    19    26    1
    29    27    26    2
    30    28    26   am
    31    29    28    1
    32    30    29    1
    33    31    30    1
    34    32    31   ar
    35    33    32   ar
    36    34    33    1
    37    35    33   ar
    38    36    35   ar
    39    37    36   ar
    40    37    31   ar
