@<TRIPOS>MOLECULE
*****
 20 22 0 0 0
SMALL
GASTEIGER

@<TRIPOS>ATOM
      1 O           9.1400    1.0040   21.4050 O.2     1  UNL1       -0.2726
      2 C           8.7490   -0.0940   21.8050 C.2     1  UNL1        0.2513
      3 C           9.3530   -0.7740   23.0200 C.3     1  UNL1        0.1135
      4 C          10.8320   -0.4870   23.1610 C.ar    1  UNL1       -0.0122
      5 C          11.2850    0.5080   24.0200 C.ar    1  UNL1       -0.0037
      6 C          12.6160    0.8960   24.0200 C.ar    1  UNL1        0.0006
      7 C          13.5210    0.2890   23.1620 C.ar    1  UNL1        0.0114
      8 C          11.7530   -1.1320   22.3400 C.ar    1  UNL1        0.0076
      9 C          13.0760   -0.7330   22.3490 C.ar    1  UNL1        0.0574
     10 CL         14.2180   -1.5690   21.3320 Cl      1  UNL1       -0.0823
     11 N           7.7180   -0.7710   21.2140 N.am    1  UNL1       -0.1598
     12 C           7.0710   -0.3270   20.0570 C.ar    1  UNL1        0.1601
     13 N           5.9270    0.4500   20.1000 N.ar    1  UNL1       -0.2759
     14 C           5.6290    0.7690   18.7740 C.ar    1  UNL1        0.1488
     15 N           6.5120    0.2180   17.9390 N.ar    1  UNL1       -0.2234
     16 C           7.3960   -0.4560   18.7460 C.ar    1  UNL1        0.1352
     17 C           5.1710    0.9270   21.1560 C.ar    1  UNL1        0.0827
     18 C           4.1240    1.7440   20.9100 C.ar    1  UNL1        0.0192
     19 C           3.7970    2.1030   19.5760 C.ar    1  UNL1        0.0046
     20 C           4.5200    1.6210   18.5250 C.ar    1  UNL1        0.0375
@<TRIPOS>BOND
     1     2     1    2
     2     3     2    1
     3     4     3    1
     4     5     4   ar
     5     6     5   ar
     6     7     6   ar
     7     8     4   ar
     8     9     8   ar
     9     9     7   ar
    10    10     9    1
    11    11     2   am
    12    12    11    1
    13    13    12   ar
    14    14    13   ar
    15    15    14   ar
    16    16    15   ar
    17    16    12   ar
    18    17    13   ar
    19    18    17   ar
    20    19    18   ar
    21    20    19   ar
    22    20    14   ar
