
     RDKit          3D

 20 22  0  0  0  0  0  0  0  0999 V2000
    9.1400    1.0040   21.4050 O   0  0  0  0  0  0  0  0  0  0  0  0
    8.7490   -0.0940   21.8050 C   0  0  0  0  0  0  0  0  0  0  0  0
    9.3530   -0.7740   23.0200 C   0  0  0  0  0  0  0  0  0  0  0  0
   10.8320   -0.4870   23.1610 C   0  0  0  0  0  0  0  0  0  0  0  0
   11.2850    0.5080   24.0200 C   0  0  0  0  0  0  0  0  0  0  0  0
   12.6160    0.8960   24.0200 C   0  0  0  0  0  0  0  0  0  0  0  0
   13.5210    0.2890   23.1620 C   0  0  0  0  0  0  0  0  0  0  0  0
   11.7530   -1.1320   22.3400 C   0  0  0  0  0  0  0  0  0  0  0  0
   13.0760   -0.7330   22.3490 C   0  0  0  0  0  0  0  0  0  0  0  0
   14.2180   -1.5690   21.3320 Cl  0  0  0  0  0  0  0  0  0  0  0  0
    7.7180   -0.7710   21.2140 N   0  0  0  0  0  0  0  0  0  0  0  0
    7.0710   -0.3270   20.0570 C   0  0  0  0  0  0  0  0  0  0  0  0
    5.9270    0.4500   20.1000 N   0  0  0  0  0  0  0  0  0  0  0  0
    5.6290    0.7690   18.7740 C   0  0  0  0  0  0  0  0  0  0  0  0
    6.5120    0.2180   17.9390 N   0  0  0  0  0  0  0  0  0  0  0  0
    7.3960   -0.4560   18.7460 C   0  0  0  0  0  0  0  0  0  0  0  0
    5.1710    0.9270   21.1560 C   0  0  0  0  0  0  0  0  0  0  0  0
    4.1240    1.7440   20.9100 C   0  0  0  0  0  0  0  0  0  0  0  0
    3.7970    2.1030   19.5760 C   0  0  0  0  0  0  0  0  0  0  0  0
    4.5200    1.6210   18.5250 C   0  0  0  0  0  0  0  0  0  0  0  0
  2  1  2  0
  3  2  1  0
  4  3  1  0
  5  4  2  0
  6  5  1  0
  7  6  2  0
  8  4  1  0
  9  8  2  0
  9  7  1  0
 10  9  1  0
 11  2  1  0
 12 11  1  0
 13 12  1  0
 14 13  1  0
 15 14  2  0
 16 15  1  0
 16 12  2  0
 17 13  1  0
 18 17  2  0
 19 18  1  0
 20 19  2  0
 20 14  1  0
M  END
