@<TRIPOS>MOLECULE
*****
 24 26 0 0 0
SMALL
GASTEIGER

@<TRIPOS>ATOM
      1 CL         14.0250   -1.5640   21.5230 Cl      1  UNL1       -0.0814
      2 C          12.7100   -0.7940   22.3580 C.ar    1  UNL1        0.0681
      3 C          12.9420    0.2410   23.2580 C.ar    1  UNL1        0.0682
      4 CL         14.5490    0.8080   23.5810 Cl      1  UNL1       -0.0814
      5 C          11.8770    0.8620   23.8830 C.ar    1  UNL1        0.0121
      6 C          10.5850    0.4570   23.6080 C.ar    1  UNL1        0.0024
      7 C          11.4190   -1.2050   22.0800 C.ar    1  UNL1        0.0137
      8 C          10.3460   -0.5690   22.6990 C.ar    1  UNL1        0.0474
      9 C           8.9360   -0.9860   22.3730 C.3     1  UNL1        0.3509
     10 F           8.9260   -2.2880   21.9670 F       1  UNL1       -0.1897
     11 F           8.1720   -0.9470   23.5020 F       1  UNL1       -0.1897
     12 C           8.3130   -0.0670   21.2890 C.2     1  UNL1        0.3110
     13 O           8.6130    1.1180   21.1740 O.2     1  UNL1       -0.2667
     14 N           7.5050   -0.6810   20.4090 N.am    1  UNL1       -0.1728
     15 C           6.4640   -0.2420   19.5790 C.ar    1  UNL1        0.0926
     16 C           5.4400    0.6520   20.0390 C.ar    1  UNL1        0.0184
     17 C           5.0360    0.7630   21.3950 C.ar    1  UNL1        0.0014
     18 C           3.9700    1.5450   21.7530 C.ar    1  UNL1        0.0000
     19 C           3.2650    2.2620   20.7980 C.ar    1  UNL1        0.0001
     20 C           3.6180    2.1980   19.4810 C.ar    1  UNL1        0.0016
     21 C           4.7050    1.3860   19.0650 C.ar    1  UNL1        0.0204
     22 C           5.0560    1.2080   17.7090 C.ar    1  UNL1        0.0989
     23 N           5.9930    0.3780   17.2840 N.ar    1  UNL1       -0.2410
     24 C           6.6460   -0.3360   18.2030 C.ar    1  UNL1        0.1154
@<TRIPOS>BOND
     1     2     1    1
     2     3     2   ar
     3     4     3    1
     4     5     3   ar
     5     6     5   ar
     6     7     2   ar
     7     8     6   ar
     8     8     7   ar
     9     9     8    1
    10     9    10    1
    11    11     9    1
    12    12     9    1
    13    13    12    2
    14    14    12   am
    15    15    14    1
    16    16    15   ar
    17    17    16   ar
    18    18    17   ar
    19    19    18   ar
    20    20    19   ar
    21    21    20   ar
    22    21    16   ar
    23    22    21   ar
    24    23    22   ar
    25    24    23   ar
    26    24    15   ar
