@<TRIPOS>MOLECULE
*****
 20 21 0 0 0
SMALL
GASTEIGER

@<TRIPOS>ATOM
      1 N           5.6520   -5.1890   24.4230 N.3     1  UNL1       -0.1519
      2 C           2.4090   -4.1510   25.7420 C.ar    1  UNL1        0.1609
      3 O           4.3740   -6.3030   26.2040 O.2     1  UNL1       -0.1526
      4 C           1.4180   -3.1980   25.7170 C.ar    1  UNL1        0.0312
      5 C           6.6720   -4.4780   20.5270 C.2     1  UNL1        0.2262
      6 C           7.8240   -3.5360   20.2600 C.3     1  UNL1        0.0948
      7 C           1.7780   -1.8710   25.8410 C.ar    1  UNL1        0.0047
      8 C           3.0970   -1.4890   25.9910 C.ar    1  UNL1        0.0312
      9 C           4.0690   -2.4610   26.0120 C.ar    1  UNL1        0.1609
     10 C           3.7490   -3.8080   25.8850 C.ar    1  UNL1        0.1767
     11 C           4.7090   -5.3190   23.3010 C.3     1  UNL1        0.1173
     12 C           5.4460   -5.8990   22.1230 C.3     1  UNL1        0.1126
     13 C           7.5050   -4.8750   22.8810 C.3     1  UNL1        0.1126
     14 C           6.7890   -4.3160   24.0840 C.3     1  UNL1        0.1173
     15 F           2.0480   -5.4490   25.6210 F       1  UNL1       -0.2027
     16 F           5.3600   -2.0800   26.1550 F       1  UNL1       -0.2027
     17 N           6.5720   -5.0340   21.7600 N.am    1  UNL1       -0.2766
     18 O           6.0640   -4.5930   26.7810 O.2     1  UNL1       -0.1526
     19 O           5.8500   -4.6960   19.6480 O.2     1  UNL1       -0.2749
     20 S           5.0100   -5.0530   25.9270 S.O2    1  UNL1        0.0677
@<TRIPOS>BOND
     1     4     2   ar
     2     6     5    1
     3     7     4   ar
     4     8     7   ar
     5     9     8   ar
     6    10     9   ar
     7    10     2   ar
     8    11     1    1
     9    12    11    1
    10    14    13    1
    11    14     1    1
    12    15     2    1
    13    16     9    1
    14    17    12    1
    15    17     5   am
    16    17    13    1
    17    19     5    2
    18    20     3    2
    19    20    10    1
    20    20    18    2
    21    20     1    1
