@<TRIPOS>MOLECULE
*****
 24 27 0 0 0
SMALL
GASTEIGER

@<TRIPOS>ATOM
      1 O           8.6160    0.9540   21.1900 O.2     1  UNL1       -0.2742
      2 C           8.0490    0.0170   21.7300 C.2     1  UNL1        0.2330
      3 C           8.5830   -0.5730   23.0320 C.3     1  UNL1        0.0993
      4 C          10.0890   -0.3880   23.1220 C.ar    1  UNL1       -0.0138
      5 C          10.6480    0.4370   24.0890 C.ar    1  UNL1       -0.0029
      6 C          12.0150    0.6480   24.1440 C.ar    1  UNL1        0.0111
      7 C          10.9380   -1.0210   22.2200 C.ar    1  UNL1       -0.0029
      8 C          12.3070   -0.8180   22.2620 C.ar    1  UNL1        0.0111
      9 C          12.8270    0.0330   23.2150 C.ar    1  UNL1        0.0577
     10 CL         14.5300    0.3880   23.2050 Cl      1  UNL1       -0.0822
     11 N           6.9020   -0.5270   21.2150 N.am    1  UNL1       -0.2569
     12 C           6.4240   -1.8960   21.4890 C.3     1  UNL1        0.0983
     13 C           6.7610   -2.3100   22.9060 C.3     1  UNL1        0.0227
     14 C           8.2380   -2.0710   23.1830 C.3     1  UNL1        0.0153
     15 C           6.2920    0.0400   20.0510 C.ar    1  UNL1        0.0730
     16 C           5.1370    0.8590   20.2160 C.ar    1  UNL1        0.0167
     17 C           4.5860    1.2110   21.4800 C.ar    1  UNL1        0.0013
     18 C           3.4990    2.0360   21.5680 C.ar    1  UNL1        0.0000
     19 C           2.8980    2.5380   20.4230 C.ar    1  UNL1        0.0001
     20 C           3.3870    2.2300   19.1850 C.ar    1  UNL1        0.0016
     21 C           4.5230    1.3910   19.0470 C.ar    1  UNL1        0.0204
     22 C           5.1130    1.0850   17.7920 C.ar    1  UNL1        0.0989
     23 N           6.1990    0.3380   17.6450 N.ar    1  UNL1       -0.2410
     24 C           6.7540   -0.1670   18.7550 C.ar    1  UNL1        0.1137
@<TRIPOS>BOND
     1     2     1    2
     2     3     2    1
     3     3     4    1
     4     5     4   ar
     5     6     5   ar
     6     7     4   ar
     7     8     7   ar
     8     9     8   ar
     9     9     6   ar
    10    10     9    1
    11    11     2   am
    12    12    11    1
    13    13    12    1
    14    14    13    1
    15    14     3    1
    16    15    11    1
    17    16    15   ar
    18    17    16   ar
    19    18    17   ar
    20    19    18   ar
    21    20    19   ar
    22    21    20   ar
    23    21    16   ar
    24    22    21   ar
    25    23    22   ar
    26    24    23   ar
    27    24    15   ar
