@<TRIPOS>MOLECULE
*****
 22 24 0 0 0
SMALL
GASTEIGER

@<TRIPOS>ATOM
      1 N           5.1430    0.9020   21.2870 N.am    1  UNL1       -0.1778
      2 N           7.5880   -0.4270   20.8680 N.am    1  UNL1       -0.1760
      3 C           3.8840    1.1870   21.7240 C.2     1  UNL1        0.2461
      4 C          12.2270    0.8580   23.8210 C.ar    1  UNL1       -0.0022
      5 O           9.0490    1.3120   20.9840 O.2     1  UNL1       -0.2726
      6 C           9.2130   -0.4220   22.6640 C.3     1  UNL1        0.1048
      7 C           5.6320    0.7350   19.9660 C.ar    1  UNL1        0.0917
      8 C           6.8360    0.0400   19.7660 C.ar    1  UNL1        0.1077
      9 C           7.3250   -0.0730   18.4680 C.ar    1  UNL1        0.1167
     10 C           5.5760    1.1470   17.6260 C.ar    1  UNL1        0.1003
     11 C          10.9350    0.4140   23.5610 C.ar    1  UNL1       -0.0247
     12 C          13.0380   -0.6570   22.1770 C.ar    1  UNL1        0.1398
     13 F          14.0890   -1.2350   21.5390 F       1  UNL1       -0.2042
     14 C           9.4560    0.5260   23.8920 C.3     1  UNL1        0.0396
     15 C          13.2950    0.3320   23.1100 C.ar    1  UNL1        0.0293
     16 C          11.7720   -1.1200   21.8910 C.ar    1  UNL1        0.0255
     17 C           3.7290    1.2400   23.2160 C.3     1  UNL1        0.0968
     18 N           6.7180    0.4760   17.4110 N.ar    1  UNL1       -0.2409
     19 O           2.9330    1.3850   20.9640 O.2     1  UNL1       -0.2730
     20 C           8.6210    0.2450   21.4230 C.2     1  UNL1        0.2496
     21 C           4.9870    1.2970   18.8670 C.ar    1  UNL1        0.0386
     22 C          10.7300   -0.5340   22.6000 C.ar    1  UNL1       -0.0152
@<TRIPOS>BOND
     1     3     1   am
     2     7     1    1
     3     8     7   ar
     4     8     2    1
     5     9     8   ar
     6    11     4   ar
     7    13    12    1
     8    14     6    1
     9    14    11    1
    10    15    12   ar
    11    15     4   ar
    12    16    12   ar
    13    17     3    1
    14    18    10   ar
    15    18     9   ar
    16    19     3    2
    17    20     5    2
    18    20     2   am
    19     6    20    1
    20    21    10   ar
    21    21     7   ar
    22    22     6    1
    23    22    16   ar
    24    22    11   ar
