@<TRIPOS>MOLECULE
*****
 21 23 0 0 0
SMALL
GASTEIGER

@<TRIPOS>ATOM
      1 O           6.5590    1.1670   16.9420 O.2     1  UNL1       -0.2733
      2 C           6.0840    0.9080   18.0420 C.2     1  UNL1        0.2431
      3 N           4.9150    1.4100   18.4350 N.am    1  UNL1       -0.2053
      4 C           4.4630    1.6250   19.8260 C.3     1  UNL1        0.1169
      5 C           5.1970    0.6970   20.7820 C.3     1  UNL1        0.0456
      6 C           6.8370    0.0540   19.0190 C.3     1  UNL1        0.1085
      7 C           6.6720    0.6260   20.4260 C.3     1  UNL1        0.1062
      8 N           7.4360   -0.1420   21.4060 N.am    1  UNL1       -0.2064
      9 C           8.6680    0.2120   21.7820 C.2     1  UNL1        0.2452
     10 O           9.2940    1.1100   21.2250 O.2     1  UNL1       -0.2730
     11 C           9.2170   -0.5370   22.9990 C.3     1  UNL1        0.1070
     12 C           8.5560    0.0040   24.2790 C.3     1  UNL1        0.0610
     13 C           9.1420    1.3450   24.6340 C.3     1  UNL1        0.2062
     14 O          10.5590    1.2480   24.8780 O.3     1  UNL1       -0.4757
     15 C          10.7200   -0.3410   23.0350 C.ar    1  UNL1        0.0211
     16 C          11.5720   -1.0330   22.1720 C.ar    1  UNL1        0.0106
     17 C          12.9280   -0.7700   22.1910 C.ar    1  UNL1        0.0576
     18 CL         13.9750   -1.6450   21.1130 Cl      1  UNL1       -0.0823
     19 C          11.2840    0.5920   23.9120 C.ar    1  UNL1        0.1350
     20 C          12.6440    0.8560   23.9060 C.ar    1  UNL1        0.0374
     21 C          13.4720    0.1690   23.0390 C.ar    1  UNL1        0.0145
@<TRIPOS>BOND
     1     2     1    2
     2     3     2   am
     3     4     3    1
     4     5     4    1
     5     6     2    1
     6     7     5    1
     7     7     6    1
     8     7     8    1
     9     9     8   am
    10    10     9    2
    11    11     9    1
    12    12    11    1
    13    13    12    1
    14    14    13    1
    15    15    11    1
    16    16    15   ar
    17    17    16   ar
    18    18    17    1
    19    19    15   ar
    20    19    14    1
    21    20    19   ar
    22    21    20   ar
    23    21    17   ar
