@<TRIPOS>MOLECULE
*****
 23 25 0 0 0
SMALL
GASTEIGER

@<TRIPOS>ATOM
      1 CL         13.4460   -1.6700   22.1340 Cl      1  UNL1       -0.0814
      2 C          12.1180   -0.8410   22.8830 C.ar    1  UNL1        0.0680
      3 C          12.3440    0.1580   23.8200 C.ar    1  UNL1        0.0682
      4 CL         13.9460    0.7440   24.1350 Cl      1  UNL1       -0.0814
      5 C          11.2760    0.7410   24.4770 C.ar    1  UNL1        0.0120
      6 C           9.9870    0.3540   24.1660 C.ar    1  UNL1       -0.0004
      7 C          10.8250   -1.2140   22.5640 C.ar    1  UNL1        0.0109
      8 C           9.7440   -0.6020   23.1910 C.ar    1  UNL1        0.0175
      9 C           8.3280   -0.8540   22.7100 C.3     1  UNL1        0.2517
     10 O           7.8320   -2.1830   22.7860 O.3     1  UNL1       -0.2083
     11 C           7.7830   -0.0490   21.5360 C.2     1  UNL1        0.2804
     12 O           8.2500    1.0620   21.3000 O.2     1  UNL1       -0.2699
     13 N           6.8300   -0.6360   20.7750 N.am    1  UNL1       -0.1752
     14 C           6.1410   -0.0680   19.6840 C.ar    1  UNL1        0.0925
     15 C           5.0340    0.7910   19.9590 C.ar    1  UNL1        0.0184
     16 C           4.4710    0.9650   21.2500 C.ar    1  UNL1        0.0014
     17 C           3.4100    1.8020   21.4460 C.ar    1  UNL1        0.0000
     18 C           2.8590    2.5080   20.3850 C.ar    1  UNL1        0.0001
     19 C           3.3600    2.3700   19.1230 C.ar    1  UNL1        0.0016
     20 C           4.4560    1.5060   18.8730 C.ar    1  UNL1        0.0204
     21 C           5.0070    1.3020   17.5830 C.ar    1  UNL1        0.0989
     22 N           6.0170    0.4840   17.3260 N.ar    1  UNL1       -0.2410
     23 C           6.5570   -0.1800   18.3570 C.ar    1  UNL1        0.1154
@<TRIPOS>BOND
     1     2     1    1
     2     3     2   ar
     3     4     3    1
     4     5     3   ar
     5     6     5   ar
     6     7     2   ar
     7     8     7   ar
     8     8     6   ar
     9     9     8    1
    10     9    10    1
    11    11     9    1
    12    12    11    2
    13    13    11   am
    14    14    13    1
    15    15    14   ar
    16    16    15   ar
    17    17    16   ar
    18    18    17   ar
    19    19    18   ar
    20    20    19   ar
    21    20    15   ar
    22    21    20   ar
    23    22    21   ar
    24    23    22   ar
    25    23    14   ar
