
     RDKit          3D

 23 25  0  0  0  0  0  0  0  0999 V2000
   13.4460   -1.6700   22.1340 Cl  0  0  0  0  0  0  0  0  0  0  0  0
   12.1180   -0.8410   22.8830 C   0  0  0  0  0  0  0  0  0  0  0  0
   12.3440    0.1580   23.8200 C   0  0  0  0  0  0  0  0  0  0  0  0
   13.9460    0.7440   24.1350 Cl  0  0  0  0  0  0  0  0  0  0  0  0
   11.2760    0.7410   24.4770 C   0  0  0  0  0  0  0  0  0  0  0  0
    9.9870    0.3540   24.1660 C   0  0  0  0  0  0  0  0  0  0  0  0
   10.8250   -1.2140   22.5640 C   0  0  0  0  0  0  0  0  0  0  0  0
    9.7440   -0.6020   23.1910 C   0  0  0  0  0  0  0  0  0  0  0  0
    8.3280   -0.8540   22.7100 C   0  0  2  0  0  0  0  0  0  0  0  0
    7.8320   -2.1830   22.7860 O   0  0  0  0  0  0  0  0  0  0  0  0
    7.7830   -0.0490   21.5360 C   0  0  0  0  0  0  0  0  0  0  0  0
    8.2500    1.0620   21.3000 O   0  0  0  0  0  0  0  0  0  0  0  0
    6.8300   -0.6360   20.7750 N   0  0  0  0  0  0  0  0  0  0  0  0
    6.1410   -0.0680   19.6840 C   0  0  0  0  0  0  0  0  0  0  0  0
    5.0340    0.7910   19.9590 C   0  0  0  0  0  0  0  0  0  0  0  0
    4.4710    0.9650   21.2500 C   0  0  0  0  0  0  0  0  0  0  0  0
    3.4100    1.8020   21.4460 C   0  0  0  0  0  0  0  0  0  0  0  0
    2.8590    2.5080   20.3850 C   0  0  0  0  0  0  0  0  0  0  0  0
    3.3600    2.3700   19.1230 C   0  0  0  0  0  0  0  0  0  0  0  0
    4.4560    1.5060   18.8730 C   0  0  0  0  0  0  0  0  0  0  0  0
    5.0070    1.3020   17.5830 C   0  0  0  0  0  0  0  0  0  0  0  0
    6.0170    0.4840   17.3260 N   0  0  0  0  0  0  0  0  0  0  0  0
    6.5570   -0.1800   18.3570 C   0  0  0  0  0  0  0  0  0  0  0  0
  2  1  1  0
  3  2  2  0
  4  3  1  0
  5  3  1  0
  6  5  2  0
  7  2  1  0
  8  7  2  0
  8  6  1  0
  9  8  1  0
  9 10  1  6
 11  9  1  0
 12 11  2  0
 13 11  1  0
 14 13  1  0
 15 14  1  0
 16 15  2  0
 17 16  1  0
 18 17  2  0
 19 18  1  0
 20 19  2  0
 20 15  1  0
 21 20  1  0
 22 21  2  0
 23 22  1  0
 23 14  2  0
M  END
