@<TRIPOS>MOLECULE
*****
 31 34 0 0 0
SMALL
GASTEIGER

@<TRIPOS>ATOM
      1 O           3.7380    2.8510   25.5460 O.2     1  UNL1       -0.1528
      2 S           4.4980    2.1400   24.5650 S.O2    1  UNL1        0.0750
      3 O           5.9030    2.3930   24.4610 O.2     1  UNL1       -0.1528
      4 C           4.2610    0.4220   24.8230 C.3     1  UNL1        0.2016
      5 N           3.8300    2.4930   23.1210 N.pl3   1  UNL1       -0.1006
      6 C           4.3090    2.1260   21.8230 C.ar    1  UNL1        0.0907
      7 C           3.5880    2.5480   20.7060 C.ar    1  UNL1        0.0181
      8 C           3.9680    2.1980   19.4460 C.ar    1  UNL1        0.0030
      9 C           5.4360    1.3480   21.6530 C.ar    1  UNL1        0.0194
     10 C           5.8690    0.9610   20.3580 C.ar    1  UNL1        0.0197
     11 C           5.1130    1.3940   19.2330 C.ar    1  UNL1        0.0205
     12 C           5.5590    1.0080   17.9460 C.ar    1  UNL1        0.0989
     13 N           6.6370    0.2720   17.7230 N.ar    1  UNL1       -0.2410
     14 C           7.3420   -0.1350   18.7890 C.ar    1  UNL1        0.1154
     15 C           7.0350    0.1630   20.1170 C.ar    1  UNL1        0.0926
     16 N           7.8140   -0.2520   21.2220 N.am    1  UNL1       -0.1754
     17 C           8.9110    0.3490   21.7300 C.2     1  UNL1        0.2742
     18 O           9.4030    1.3510   21.2360 O.2     1  UNL1       -0.2701
     19 C           9.4680   -0.2710   23.0710 C.3     1  UNL1        0.1877
     20 O           9.0570   -1.6430   22.9900 O.3     1  UNL1       -0.3428
     21 C           9.5040   -2.5250   24.0270 C.3     1  UNL1        0.1750
     22 C          10.9750   -0.1300   23.1060 C.ar    1  UNL1        0.0453
     23 C          11.7790   -0.7520   22.1520 C.ar    1  UNL1        0.0129
     24 C          13.1520   -0.5850   22.2100 C.ar    1  UNL1        0.0576
     25 CL         14.1410   -1.3020   20.9700 Cl      1  UNL1       -0.0823
     26 C          13.7540    0.1640   23.1970 C.ar    1  UNL1        0.0145
     27 C          12.9700    0.7750   24.1580 C.ar    1  UNL1        0.0375
     28 C          11.5930    0.6350   24.0990 C.ar    1  UNL1        0.1372
     29 O          10.8850    1.3300   25.0480 O.3     1  UNL1       -0.4756
     30 C           9.6410    0.7100   25.4150 C.3     1  UNL1        0.2087
     31 C           8.7460    0.4730   24.2130 C.3     1  UNL1        0.0879
@<TRIPOS>BOND
     1     2     1    2
     2     3     2    2
     3     2     4    1
     4     5     2    1
     5     6     5    1
     6     7     6   ar
     7     8     7   ar
     8     9     6   ar
     9    10     9   ar
    10    11     8   ar
    11    11    10   ar
    12    12    11   ar
    13    13    12   ar
    14    14    13   ar
    15    15    14   ar
    16    15    10   ar
    17    16    15    1
    18    17    16   am
    19    18    17    2
    20    19    17    1
    21    19    20    1
    22    21    20    1
    23    22    19    1
    24    23    22   ar
    25    24    23   ar
    26    25    24    1
    27    26    24   ar
    28    27    26   ar
    29    28    27   ar
    30    28    22   ar
    31    29    28    1
    32    30    29    1
    33    31    30    1
    34    31    19    1
