@<TRIPOS>MOLECULE
*****
 13 13 0 0 0
SMALL
GASTEIGER

@<TRIPOS>ATOM
      1 C           7.8590   -1.3260   23.5490 C.3     1  UNL1        0.0283
      2 C           9.0240   -2.1010   22.9380 C.3     1  UNL1        0.1175
      3 C           8.3190   -1.7770   20.5540 C.2     1  UNL1        0.2421
      4 C           7.9780   -2.4430   19.2190 C.3     1  UNL1        0.0964
      5 C          10.3540   -1.3660   22.9610 C.ar    1  UNL1       -0.0017
      6 C          10.5750   -0.2240   23.7220 C.ar    1  UNL1       -0.0026
      7 C          11.8150    0.3910   23.7250 C.ar    1  UNL1        0.0006
      8 C          12.8610   -0.1290   22.9980 C.ar    1  UNL1        0.0114
      9 C          12.6430   -1.2650   22.2600 C.ar    1  UNL1        0.0574
     10 C          11.4150   -1.8820   22.2400 C.ar    1  UNL1        0.0088
     11 N           8.6700   -2.5630   21.5820 N.am    1  UNL1       -0.2027
     12 O           8.2530   -0.5450   20.6250 O.2     1  UNL1       -0.2733
     13 CL         13.9370   -1.9470   21.3220 Cl      1  UNL1       -0.0823
@<TRIPOS>BOND
     1     2     1    1
     2     4     3    1
     3     5     2    1
     4     6     5   ar
     5     7     6   ar
     6     8     7   ar
     7     9     8   ar
     8    10     5   ar
     9    10     9   ar
    10    11     3   am
    11    11     2    1
    12    12     3    2
    13    13     9    1
