@<TRIPOS>MOLECULE
*****
 34 38 0 0 0
SMALL
GASTEIGER

@<TRIPOS>ATOM
      1 O           8.8820    1.3400   21.3860 O.2     1  UNL1       -0.2726
      2 C           8.5780    0.1710   21.5750 C.2     1  UNL1        0.2504
      3 N           7.8230   -0.4960   20.6760 N.am    1  UNL1       -0.1773
      4 C           6.7510   -0.1280   19.8380 C.ar    1  UNL1        0.0925
      5 C           5.7270    0.7710   20.2900 C.ar    1  UNL1        0.0184
      6 C           5.3910    0.9610   21.6570 C.ar    1  UNL1        0.0014
      7 C           4.3100    1.7140   22.0180 C.ar    1  UNL1        0.0000
      8 C           3.5170    2.3240   21.0550 C.ar    1  UNL1        0.0001
      9 C           3.8040    2.1840   19.7270 C.ar    1  UNL1        0.0016
     10 C           4.9080    1.4010   19.3070 C.ar    1  UNL1        0.0204
     11 C           5.1770    1.1200   17.9460 C.ar    1  UNL1        0.0989
     12 N           6.1070    0.2760   17.5310 N.ar    1  UNL1       -0.2410
     13 C           6.8420   -0.3400   18.4640 C.ar    1  UNL1        0.1154
     14 C           9.1290   -0.6080   22.7960 C.3     1  UNL1        0.1160
     15 C           8.3510   -0.0550   24.0150 C.3     1  UNL1        0.0619
     16 C           8.8370    1.3200   24.4310 C.3     1  UNL1        0.2063
     17 O          10.2430    1.3290   24.7400 O.3     1  UNL1       -0.4757
     18 C          10.6180   -0.2480   22.9220 C.ar    1  UNL1        0.0221
     19 C          11.0550    0.7600   23.7910 C.ar    1  UNL1        0.1350
     20 C          12.3780    1.1730   23.8150 C.ar    1  UNL1        0.0374
     21 C          13.2980    0.5510   22.9930 C.ar    1  UNL1        0.0145
     22 C          11.5650   -0.8910   22.1300 C.ar    1  UNL1        0.0106
     23 C          12.8830   -0.4790   22.1780 C.ar    1  UNL1        0.0576
     24 CL         14.0460   -1.2590   21.1420 Cl      1  UNL1       -0.0823
     25 C           8.9720   -2.1480   22.6380 C.3     1  UNL1        0.1281
     26 N           8.5820   -2.8610   23.8430 N.am    1  UNL1       -0.2029
     27 C           7.7810   -3.9240   23.8230 C.2     1  UNL1        0.2645
     28 O           7.4210   -4.4860   22.7900 O.2     1  UNL1       -0.2712
     29 C           7.3140   -4.4050   25.1870 C.3     1  UNL1        0.1947
     30 N           6.1600   -3.6720   25.7020 N.ar    1  UNL1       -0.2991
     31 C           6.0050   -2.3340   25.7710 C.ar    1  UNL1        0.1790
     32 N           4.8810   -1.9920   26.3620 N.ar    1  UNL1       -0.2223
     33 C           4.2770   -3.1830   26.6830 C.ar    1  UNL1        0.1193
     34 C           5.0430   -4.2240   26.2820 C.ar    1  UNL1        0.0984
@<TRIPOS>BOND
     1     2     1    2
     2     3     2   am
     3     4     3    1
     4     5     4   ar
     5     6     5   ar
     6     7     6   ar
     7     8     7   ar
     8     9     8   ar
     9    10     9   ar
    10    10     5   ar
    11    11    10   ar
    12    12    11   ar
    13    13    12   ar
    14    13     4   ar
    15    14     2    1
    16    15    14    1
    17    16    15    1
    18    17    16    1
    19    18    14    1
    20    19    18   ar
    21    19    17    1
    22    20    19   ar
    23    21    20   ar
    24    22    18   ar
    25    23    22   ar
    26    23    21   ar
    27    24    23    1
    28    14    25    1
    29    26    25    1
    30    27    26   am
    31    28    27    2
    32    29    27    1
    33    30    29    1
    34    31    30   ar
    35    32    31   ar
    36    33    32   ar
    37    34    33   ar
    38    34    30   ar
