@<TRIPOS>MOLECULE
*****
 16 17 0 0 0
SMALL
GASTEIGER

@<TRIPOS>ATOM
      1 CL         13.8490   -1.8640   21.3590 Cl      1  UNL1       -0.0823
      2 C          12.6600   -0.9760   22.2770 C.ar    1  UNL1        0.0574
      3 C          13.0640    0.0810   23.0640 C.ar    1  UNL1        0.0114
      4 C          12.1070    0.7700   23.7930 C.ar    1  UNL1        0.0005
      5 C          10.7680    0.4180   23.6990 C.ar    1  UNL1       -0.0041
      6 C          11.3330   -1.3480   22.1870 C.ar    1  UNL1        0.0072
      7 C          10.3650   -0.6210   22.8730 C.ar    1  UNL1       -0.0187
      8 C           8.9050   -0.8460   22.5620 C.3     1  UNL1        0.0613
      9 C           8.5110   -0.3360   21.1700 C.3     1  UNL1        0.1806
     10 O           8.8840    1.0450   21.0470 O.3     1  UNL1       -0.2206
     11 C           7.0140   -0.5120   20.9420 C.3     1  UNL1        0.1623
     12 N           6.5880   -0.0260   19.6330 N.ar    1  UNL1       -0.2274
     13 N           5.5370    0.8230   19.5170 N.ar    1  UNL1       -0.1451
     14 C           5.5120    1.0520   18.2240 C.ar    1  UNL1        0.2210
     15 N           6.4630    0.4200   17.5050 N.ar    1  UNL1       -0.2007
     16 C           7.1090   -0.2520   18.4310 C.ar    1  UNL1        0.1973
@<TRIPOS>BOND
     1     2     1    1
     2     3     2   ar
     3     4     3   ar
     4     5     4   ar
     5     6     2   ar
     6     7     5   ar
     7     7     6   ar
     8     8     7    1
     9     9     8    1
    10     9    10    1
    11    11     9    1
    12    12    11    1
    13    13    12   ar
    14    14    13   ar
    15    15    14   ar
    16    16    15   ar
    17    16    12   ar
