@<TRIPOS>MOLECULE
*****
 24 27 0 0 0
SMALL
GASTEIGER

@<TRIPOS>ATOM
      1 O           8.6990    0.9130   21.0750 O.2     1  UNL1       -0.2742
      2 C           8.1160   -0.0040   21.6320 C.2     1  UNL1        0.2330
      3 C           8.6250   -0.5630   22.9590 C.3     1  UNL1        0.0993
      4 C          10.1380   -0.4920   23.0480 C.ar    1  UNL1       -0.0138
      5 C          10.9340   -1.1230   22.1000 C.ar    1  UNL1       -0.0029
      6 C          12.3140   -1.0850   22.1850 C.ar    1  UNL1        0.0111
      7 C          10.7580    0.1720   24.0980 C.ar    1  UNL1       -0.0029
      8 C          12.1370    0.2240   24.1970 C.ar    1  UNL1        0.0111
      9 C          12.9000   -0.4030   23.2340 C.ar    1  UNL1        0.0577
     10 CL         14.6350   -0.3080   23.3240 Cl      1  UNL1       -0.0822
     11 N           6.9570   -0.5350   21.1360 N.am    1  UNL1       -0.2569
     12 C           6.4330   -1.8700   21.4720 C.3     1  UNL1        0.0983
     13 C           6.6870   -2.1750   22.9360 C.3     1  UNL1        0.0227
     14 C           8.1640   -2.0030   23.2610 C.3     1  UNL1        0.0153
     15 C           6.3350    0.0130   19.9720 C.ar    1  UNL1        0.0730
     16 C           5.2190    0.8810   20.1410 C.ar    1  UNL1        0.0167
     17 C           4.6670    1.2290   21.4000 C.ar    1  UNL1        0.0013
     18 C           3.6030    2.0790   21.4910 C.ar    1  UNL1        0.0000
     19 C           3.0340    2.6250   20.3490 C.ar    1  UNL1        0.0001
     20 C           3.5270    2.3240   19.1130 C.ar    1  UNL1        0.0016
     21 C           4.6260    1.4430   18.9720 C.ar    1  UNL1        0.0204
     22 C           5.1770    1.0870   17.7170 C.ar    1  UNL1        0.0989
     23 N           6.2050    0.2610   17.5650 N.ar    1  UNL1       -0.2410
     24 C           6.7570   -0.2510   18.6740 C.ar    1  UNL1        0.1137
@<TRIPOS>BOND
     1     2     1    2
     2     3     2    1
     3     3     4    1
     4     5     4   ar
     5     6     5   ar
     6     7     4   ar
     7     8     7   ar
     8     9     8   ar
     9     9     6   ar
    10    10     9    1
    11    11     2   am
    12    12    11    1
    13    13    12    1
    14    14    13    1
    15    14     3    1
    16    15    11    1
    17    16    15   ar
    18    17    16   ar
    19    18    17   ar
    20    19    18   ar
    21    20    19   ar
    22    21    20   ar
    23    21    16   ar
    24    22    21   ar
    25    23    22   ar
    26    24    23   ar
    27    24    15   ar
