@<TRIPOS>MOLECULE
*****
 26 29 0 0 0
SMALL
GASTEIGER

@<TRIPOS>ATOM
      1 O           6.1900    0.7220   25.3150 O.2     1  UNL1       -0.2652
      2 C           6.4070    1.5670   24.4350 C.ar    1  UNL1        0.2794
      3 C           7.5910    1.6030   23.6430 C.ar    1  UNL1        0.0671
      4 N           5.4920    2.5580   24.1890 N.ar    1  UNL1       -0.2079
      5 C           5.6620    3.5700   23.2480 C.ar    1  UNL1        0.0847
      6 C           6.8370    3.5990   22.4670 C.ar    1  UNL1        0.0223
      7 C           6.9980    4.6040   21.5130 C.ar    1  UNL1        0.0016
      8 C           6.0060    5.5550   21.3360 C.ar    1  UNL1        0.0001
      9 C           4.8650    5.5340   22.1180 C.ar    1  UNL1        0.0015
     10 C           4.6850    4.5500   23.0760 C.ar    1  UNL1        0.0192
     11 C           7.8260    2.5510   22.6970 C.ar    1  UNL1        0.0598
     12 C           9.0810    2.4650   21.9100 C.2     1  UNL1        0.2493
     13 O           9.0620    1.9950   20.7820 O.2     1  UNL1       -0.2699
     14 N          10.2110    2.9040   22.4730 N.am    1  UNL1       -0.2724
     15 C          10.5250    3.8060   23.5850 C.3     1  UNL1        0.1170
     16 C          11.4430    3.2140   21.7420 C.3     1  UNL1        0.1170
     17 C          11.8790    4.1130   22.9120 C.3     1  UNL1        0.1321
     18 N          12.1290    5.5060   22.6020 N.pl3   1  UNL1       -0.2328
     19 C          11.8650    6.5090   23.4870 C.ar    1  UNL1        0.0992
     20 C          10.9190    7.4670   23.1240 C.ar    1  UNL1        0.1534
     21 O          10.2250    7.1710   21.9840 O.3     1  UNL1       -0.4701
     22 C           8.9380    7.7550   21.8190 C.3     1  UNL1        0.2525
     23 C          12.5540    6.6460   24.6900 C.ar    1  UNL1        0.0192
     24 C          12.3320    7.7580   25.4820 C.ar    1  UNL1        0.0015
     25 C          11.4340    8.7290   25.0860 C.ar    1  UNL1        0.0032
     26 C          10.7080    8.5860   23.9160 C.ar    1  UNL1        0.0382
@<TRIPOS>BOND
     1     2     1    2
     2     3     2   ar
     3     4     2   ar
     4     5     4   ar
     5     6     5   ar
     6     7     6   ar
     7     8     7   ar
     8     9     8   ar
     9    10     9   ar
    10    10     5   ar
    11    11     6   ar
    12    11     3   ar
    13    12    11    1
    14    13    12    2
    15    14    12   am
    16    15    14    1
    17    16    14    1
    18    17    15    1
    19    17    16    1
    20    17    18    1
    21    19    18    1
    22    20    19   ar
    23    21    20    1
    24    22    21    1
    25    23    19   ar
    26    24    23   ar
    27    25    24   ar
    28    26    25   ar
    29    26    20   ar
