@<TRIPOS>MOLECULE
*****
 24 27 0 0 0
SMALL
GASTEIGER

@<TRIPOS>ATOM
      1 O           9.3290    1.4750   21.1150 O.2     1  UNL1       -0.2726
      2 C           8.9350    0.3730   21.4810 C.2     1  UNL1        0.2494
      3 C           9.4970   -0.3220   22.7210 C.3     1  UNL1        0.1074
      4 C           8.7520    0.3250   23.9250 C.3     1  UNL1        0.0610
      5 C           9.7020    0.8660   24.9650 C.3     1  UNL1        0.2062
      6 O          10.8050    1.5900   24.4080 O.3     1  UNL1       -0.4757
      7 C          11.0030   -0.1280   22.7180 C.ar    1  UNL1        0.0212
      8 C          11.5680    0.8300   23.5590 C.ar    1  UNL1        0.1350
      9 C          12.9350    1.0640   23.5830 C.ar    1  UNL1        0.0374
     10 C          13.7640    0.3360   22.7490 C.ar    1  UNL1        0.0145
     11 C          11.8550   -0.8760   21.9050 C.ar    1  UNL1        0.0106
     12 C          13.2140   -0.6270   21.9270 C.ar    1  UNL1        0.0576
     13 CL         14.2620   -1.5640   20.9010 Cl      1  UNL1       -0.0823
     14 N           7.9810   -0.3120   20.8260 N.am    1  UNL1       -0.1777
     15 C           6.9100    0.1360   20.0210 C.ar    1  UNL1        0.0896
     16 C           5.9550    1.1320   20.3170 C.ar    1  UNL1        0.0097
     17 C           5.8510    1.6960   21.7120 C.3     1  UNL1        0.1161
     18 N           4.5830    2.3910   21.9570 N.3     1  UNL1       -0.2129
     19 C           4.2330    3.3240   20.8570 C.3     1  UNL1        0.0938
     20 C           4.0160    2.5810   19.5580 C.3     1  UNL1        0.0465
     21 C           5.1630    1.6390   19.2750 C.ar    1  UNL1       -0.0029
     22 C           5.4370    1.2200   17.9910 C.ar    1  UNL1        0.0944
     23 N           6.3770    0.3260   17.6760 N.ar    1  UNL1       -0.2413
     24 C           7.0610   -0.2270   18.6840 C.ar    1  UNL1        0.1151
@<TRIPOS>BOND
     1     2     1    2
     2     3     2    1
     3     4     3    1
     4     5     4    1
     5     6     5    1
     6     7     3    1
     7     8     6    1
     8     8     7   ar
     9     9     8   ar
    10    10     9   ar
    11    11     7   ar
    12    12    11   ar
    13    12    10   ar
    14    13    12    1
    15    14     2   am
    16    15    14    1
    17    16    15   ar
    18    17    16    1
    19    18    17    1
    20    19    18    1
    21    20    19    1
    22    21    20    1
    23    21    16   ar
    24    22    21   ar
    25    23    22   ar
    26    24    23   ar
    27    24    15   ar
