@<TRIPOS>MOLECULE
*****
 21 23 0 0 0
SMALL
GASTEIGER

@<TRIPOS>ATOM
      1 O           8.3280    0.8050   21.2650 O.2     1  UNL1       -0.2726
      2 C           7.8720   -0.3270   21.4330 C.2     1  UNL1        0.2516
      3 C           8.3780   -1.2360   22.5370 C.3     1  UNL1        0.1327
      4 C           9.8280   -0.9430   22.8360 C.ar    1  UNL1        0.0683
      5 C          10.8500   -1.6780   22.2430 C.ar    1  UNL1        0.0161
      6 C          12.1550   -1.2690   22.4380 C.ar    1  UNL1        0.0142
      7 N          10.0630    0.1240   23.6200 N.ar    1  UNL1       -0.2468
      8 C          11.3330    0.5080   23.7990 C.ar    1  UNL1        0.1098
      9 C          12.3930   -0.1610   23.2150 C.ar    1  UNL1        0.0768
     10 CL         14.0240    0.4020   23.4340 Cl      1  UNL1       -0.0806
     11 N           6.9000   -0.8680   20.6640 N.am    1  UNL1       -0.1773
     12 C           6.2090   -0.2550   19.6050 C.ar    1  UNL1        0.0925
     13 C           5.0970    0.5840   19.9260 C.ar    1  UNL1        0.0184
     14 C           4.5290    0.6800   21.2240 C.ar    1  UNL1        0.0014
     15 C           3.4730    1.5110   21.4660 C.ar    1  UNL1        0.0000
     16 C           2.9330    2.2880   20.4480 C.ar    1  UNL1        0.0001
     17 C           3.4450    2.2280   19.1830 C.ar    1  UNL1        0.0016
     18 C           4.5330    1.3730   18.8850 C.ar    1  UNL1        0.0204
     19 C           5.1020    1.2590   17.5930 C.ar    1  UNL1        0.0989
     20 N           6.1180    0.4590   17.2920 N.ar    1  UNL1       -0.2410
     21 C           6.6410   -0.2770   18.2800 C.ar    1  UNL1        0.1154
@<TRIPOS>BOND
     1     2     1    2
     2     3     2    1
     3     4     3    1
     4     5     4   ar
     5     6     5   ar
     6     7     4   ar
     7     8     7   ar
     8     9     8   ar
     9     9     6   ar
    10    10     9    1
    11    11     2   am
    12    12    11    1
    13    13    12   ar
    14    14    13   ar
    15    15    14   ar
    16    16    15   ar
    17    17    16   ar
    18    18    17   ar
    19    18    13   ar
    20    19    18   ar
    21    20    19   ar
    22    21    20   ar
    23    21    12   ar
