@<TRIPOS>MOLECULE
*****
 30 33 0 0 0
SMALL
GASTEIGER

@<TRIPOS>ATOM
      1 O          12.9840    6.6030   22.1610 O.2     1  UNL1       -0.2730
      2 C          12.9510    5.4210   22.4740 C.2     1  UNL1        0.2499
      3 C          12.2610    4.1760   21.9420 C.3     1  UNL1        0.1539
      4 N          13.5810    4.7300   23.4410 N.am    1  UNL1       -0.1652
      5 C          13.2330    3.4190   22.8530 C.3     1  UNL1        0.2718
      6 O          12.4480    2.5970   23.7400 O.3     1  UNL1       -0.4581
      7 C          12.2680    1.2970   23.3140 C.ar    1  UNL1        0.1445
      8 C          13.3370    0.4780   22.9800 C.ar    1  UNL1        0.0486
      9 C          13.0680   -0.8100   22.5600 C.ar    1  UNL1        0.0637
     10 CL         14.3880   -1.8250   22.0590 Cl      1  UNL1       -0.0820
     11 C          10.9610    0.8430   23.2380 C.ar    1  UNL1        0.0739
     12 C          10.7340   -0.4620   22.8320 C.ar    1  UNL1        0.1425
     13 C          11.7820   -1.3060   22.4940 C.ar    1  UNL1        0.0485
     14 O           9.4130   -0.8320   22.7930 O.3     1  UNL1       -0.4734
     15 C           9.0810   -2.1720   22.3890 C.3     1  UNL1        0.2287
     16 C           7.5880   -2.2540   22.3480 C.3     1  UNL1        0.1626
     17 N           7.0480   -1.2630   21.4300 N.am    1  UNL1       -0.1977
     18 C           5.8530   -1.4060   20.8580 C.2     1  UNL1        0.2651
     19 O           5.1390   -2.3890   21.0470 O.2     1  UNL1       -0.2684
     20 C           5.4200   -0.2930   19.9930 C.ar    1  UNL1        0.0613
     21 C           4.3780    0.6360   20.4180 C.ar    1  UNL1        0.0223
     22 C           3.8200    0.6230   21.6980 C.ar    1  UNL1        0.0016
     23 C           2.8440    1.5460   22.0380 C.ar    1  UNL1        0.0001
     24 C           2.4180    2.4880   21.1180 C.ar    1  UNL1        0.0015
     25 C           2.9670    2.5250   19.8440 C.ar    1  UNL1        0.0192
     26 C           3.9530    1.6060   19.4900 C.ar    1  UNL1        0.0847
     27 N           4.5590    1.6630   18.2390 N.ar    1  UNL1       -0.2079
     28 C           5.5780    0.8400   17.8310 C.ar    1  UNL1        0.2794
     29 O           6.1340    1.0310   16.7530 O.2     1  UNL1       -0.2652
     30 C           5.9780   -0.1620   18.7580 C.ar    1  UNL1        0.0671
@<TRIPOS>BOND
     1     2     1    2
     2     3     2    1
     3     4     2   am
     4     5     4    1
     5     5     3    1
     6     5     6    1
     7     7     6    1
     8     8     7   ar
     9     9     8   ar
    10    10     9    1
    11    11     7   ar
    12    12    11   ar
    13    13    12   ar
    14    13     9   ar
    15    14    12    1
    16    15    14    1
    17    16    15    1
    18    17    16    1
    19    18    17   am
    20    19    18    2
    21    20    18    1
    22    21    20   ar
    23    22    21   ar
    24    23    22   ar
    25    24    23   ar
    26    25    24   ar
    27    26    25   ar
    28    26    21   ar
    29    27    26   ar
    30    28    27   ar
    31    29    28    2
    32    30    20   ar
    33    30    28   ar
