@<TRIPOS>MOLECULE
*****
 16 17 0 0 0
SMALL
GASTEIGER

@<TRIPOS>ATOM
      1 C          23.1260  -17.6020   24.2230 C.3     1  UNL1        0.0897
      2 C          22.0290  -19.5460   24.0700 C.3     1  UNL1        0.0940
      3 C          22.1390  -21.0380   23.7210 C.3     1  UNL1        0.1123
      4 C          24.0300  -20.5580   22.4240 C.3     1  UNL1        0.1123
      5 C          23.8460  -19.0710   22.6910 C.3     1  UNL1        0.0940
      6 C          22.2690  -22.1920   21.4700 C.2     1  UNL1        0.3275
      7 C          22.4170  -23.3040   19.1980 C.ar    1  UNL1        0.0749
      8 C          22.0560  -24.6060   19.5030 C.ar    1  UNL1        0.0166
      9 C          21.5620  -25.4390   18.5080 C.ar    1  UNL1        0.0013
     10 C          21.4320  -24.9740   17.2060 C.ar    1  UNL1        0.0001
     11 C          21.7980  -23.6670   16.8980 C.ar    1  UNL1        0.0013
     12 C          22.2940  -22.8360   17.8940 C.ar    1  UNL1        0.0166
     13 N          23.2310  -18.8340   23.9260 N.3     1  UNL1       -0.2686
     14 N          22.8040  -21.2900   22.4880 N.am    1  UNL1       -0.2597
     15 N          22.9540  -22.4170   20.2140 N.am    1  UNL1       -0.1622
     16 O          21.2360  -22.7360   21.6600 O.2     1  UNL1       -0.2504
@<TRIPOS>BOND
     1     3     2    1
     2     5     4    1
     3     8     7   ar
     4     9     8   ar
     5    10     9   ar
     6    11    10   ar
     7    12    11   ar
     8    12     7   ar
     9    13     5    1
    10    13     2    1
    11    13     1    1
    12    14     6   am
    13    14     4    1
    14    14     3    1
    15    15     7    1
    16    15     6   am
    17    16     6    2
