@<TRIPOS>MOLECULE
*****
 23 26 0 0 0
SMALL
GASTEIGER

@<TRIPOS>ATOM
      1 O           9.3130    1.4710   21.1440 O.2     1  UNL1       -0.2742
      2 C           8.8830    0.4120   21.5760 C.2     1  UNL1        0.2330
      3 C           9.4010   -0.3630   22.7820 C.3     1  UNL1        0.1010
      4 C          10.9040   -0.2110   22.9490 C.ar    1  UNL1       -0.0130
      5 C          11.4310    0.6800   23.8780 C.ar    1  UNL1       -0.0038
      6 C          12.8010    0.8730   23.9750 C.ar    1  UNL1        0.0006
      7 C          13.6650    0.1860   23.1340 C.ar    1  UNL1        0.0114
      8 C          11.7730   -0.9250   22.1300 C.ar    1  UNL1        0.0076
      9 C          13.1320   -0.6960   22.2150 C.ar    1  UNL1        0.0574
     10 CL         14.1890   -1.4660   21.0630 Cl      1  UNL1       -0.0823
     11 N           7.8410   -0.3010   21.0470 N.am    1  UNL1       -0.2569
     12 C           7.6300   -1.5950   21.7170 C.3     1  UNL1        0.0991
     13 C           8.9390   -1.8030   22.4670 C.3     1  UNL1        0.0354
     14 C           7.0090    0.1340   19.9680 C.ar    1  UNL1        0.0730
     15 C           5.8520    0.9300   20.2140 C.ar    1  UNL1        0.0167
     16 C           5.3860    1.2770   21.5100 C.ar    1  UNL1        0.0013
     17 C           4.3010    2.0920   21.6740 C.ar    1  UNL1        0.0000
     18 C           3.6270    2.6040   20.5720 C.ar    1  UNL1        0.0001
     19 C           4.0290    2.2930   19.3050 C.ar    1  UNL1        0.0016
     20 C           5.1470    1.4480   19.0890 C.ar    1  UNL1        0.0204
     21 C           5.6290    1.1130   17.7970 C.ar    1  UNL1        0.0989
     22 N           6.6960    0.3560   17.5740 N.ar    1  UNL1       -0.2410
     23 C           7.3590   -0.1110   18.6430 C.ar    1  UNL1        0.1137
@<TRIPOS>BOND
     1     2     1    2
     2     3     2    1
     3     3     4    1
     4     5     4   ar
     5     6     5   ar
     6     7     6   ar
     7     8     4   ar
     8     9     8   ar
     9     9     7   ar
    10    10     9    1
    11    11     2   am
    12    12    11    1
    13    13    12    1
    14    13     3    1
    15    14    11    1
    16    15    14   ar
    17    16    15   ar
    18    17    16   ar
    19    18    17   ar
    20    19    18   ar
    21    20    19   ar
    22    20    15   ar
    23    21    20   ar
    24    22    21   ar
    25    23    22   ar
    26    23    14   ar
