@<TRIPOS>MOLECULE
*****
 16 17 0 0 0
SMALL
GASTEIGER

@<TRIPOS>ATOM
      1 N           7.0950   -4.4980   20.9200 N.am    1  UNL1       -0.0875
      2 C           7.9030   -2.7030   19.4870 C.3     1  UNL1        0.0982
      3 O           5.8110   -3.8180   19.1960 O.2     1  UNL1       -0.2716
      4 C           6.8390   -3.7040   19.8700 C.2     1  UNL1        0.2612
      5 C          10.8620   -0.6610   23.7320 C.ar    1  UNL1        0.0034
      6 C           7.9130   -2.9660   22.5450 C.2     1  UNL1        0.2902
      7 C           9.1520   -2.2110   22.8250 C.ar    1  UNL1        0.0855
      8 C          10.3510   -2.1750   22.0490 C.ar    1  UNL1        0.0070
      9 C          11.2970   -1.2790   22.6000 C.ar    1  UNL1       -0.0195
     10 C          12.6530   -0.9870   22.0430 C.3     1  UNL1        0.0266
     11 C          13.5050   -0.1950   23.0230 C.3     1  UNL1        0.0050
     12 C          12.7460    0.9060   23.6670 C.3     1  UNL1        0.0055
     13 C          11.6330    0.3530   24.5240 C.3     1  UNL1        0.0326
     14 N           8.0080   -4.1370   21.8930 N.am    1  UNL1       -0.0835
     15 O           6.8170   -2.4900   22.8450 O.2     1  UNL1       -0.2661
     16 S           9.2750   -1.1490   24.2090 S.2     1  UNL1       -0.0870
@<TRIPOS>BOND
     1     4     3    2
     2     4     2    1
     3     4     1   am
     4     7     6    1
     5     8     7   ar
     6     9     8   ar
     7     9     5   ar
     8    10     9    1
     9    11    10    1
    10    12    11    1
    11    13     5    1
    12    13    12    1
    13    14     1    1
    14    14     6   am
    15    15     6    2
    16    16     7   ar
    17    16     5   ar
