@<TRIPOS>MOLECULE
*****
 24 27 0 0 0
SMALL
GASTEIGER

@<TRIPOS>ATOM
      1 O           9.5210    1.2370   21.2940 O.2     1  UNL1       -0.2726
      2 C           8.9320    0.2400   21.7070 C.2     1  UNL1        0.2494
      3 C           9.3530   -0.4930   22.9820 C.3     1  UNL1        0.1074
      4 C           8.6710    0.1800   24.1820 C.3     1  UNL1        0.0610
      5 C           9.4460    1.4020   24.6010 C.3     1  UNL1        0.2062
      6 O          10.7930    1.0520   24.9790 O.3     1  UNL1       -0.4757
      7 C          10.8670   -0.4260   23.0520 C.ar    1  UNL1        0.0212
      8 C          11.4900    0.3770   24.0090 C.ar    1  UNL1        0.1350
      9 C          12.8650    0.5450   24.0280 C.ar    1  UNL1        0.0374
     10 C          13.6420   -0.0920   23.0780 C.ar    1  UNL1        0.0145
     11 C          11.6720   -1.0980   22.1300 C.ar    1  UNL1        0.0106
     12 C          13.0390   -0.9160   22.1570 C.ar    1  UNL1        0.0576
     13 CL         14.0260   -1.7670   21.0010 Cl      1  UNL1       -0.0823
     14 N           7.9020   -0.3090   21.0590 N.am    1  UNL1       -0.1777
     15 C           6.8890    0.1030   20.1860 C.ar    1  UNL1        0.0896
     16 C           5.7560    0.9000   20.4110 C.ar    1  UNL1        0.0097
     17 C           5.3070    1.1970   21.8200 C.3     1  UNL1        0.1161
     18 N           4.2790    2.2400   21.8940 N.3     1  UNL1       -0.2129
     19 C           3.2300    2.0490   20.8770 C.3     1  UNL1        0.0938
     20 C           3.7860    2.1990   19.4800 C.3     1  UNL1        0.0465
     21 C           5.0450    1.3830   19.3020 C.ar    1  UNL1       -0.0029
     22 C           5.5330    1.0910   18.0440 C.ar    1  UNL1        0.0944
     23 N           6.6320    0.3700   17.8110 N.ar    1  UNL1       -0.2413
     24 C           7.2770   -0.1230   18.8670 C.ar    1  UNL1        0.1151
@<TRIPOS>BOND
     1     2     1    2
     2     3     2    1
     3     4     3    1
     4     5     4    1
     5     6     5    1
     6     7     3    1
     7     8     7   ar
     8     8     6    1
     9     9     8   ar
    10    10     9   ar
    11    11     7   ar
    12    12    11   ar
    13    12    10   ar
    14    13    12    1
    15    14     2   am
    16    15    14    1
    17    16    15   ar
    18    17    16    1
    19    18    17    1
    20    19    18    1
    21    20    19    1
    22    21    20    1
    23    21    16   ar
    24    22    21   ar
    25    23    22   ar
    26    24    23   ar
    27    24    15   ar
