@<TRIPOS>MOLECULE
*****
 20 21 0 0 0
SMALL
GASTEIGER

@<TRIPOS>ATOM
      1 N           6.5860    0.4940   17.2880 N.ar    1  UNL1       -0.2407
      2 C           5.6370    0.6650   19.8880 C.ar    1  UNL1        0.1570
      3 C          13.1320    0.0470   23.2030 C.ar    1  UNL1        0.0067
      4 O           8.9150    1.0860   21.0760 O.2     1  UNL1       -0.2699
      5 C          10.4000   -0.4960   22.9790 C.ar    1  UNL1        0.0171
      6 C           4.9610    1.3070   18.8610 C.ar    1  UNL1        0.0589
      7 C           8.4240    0.0170   21.4300 C.2     1  UNL1        0.2805
      8 C           6.8020   -0.0800   19.6140 C.ar    1  UNL1        0.1264
      9 C           7.2190   -0.1280   18.2870 C.ar    1  UNL1        0.1185
     10 C          12.2170    0.7160   24.0010 C.ar    1  UNL1        0.0003
     11 C          11.3170   -1.1920   22.2010 C.ar    1  UNL1        0.0053
     12 C          10.8620    0.4370   23.8970 C.ar    1  UNL1       -0.0013
     13 C          12.6640   -0.9210   22.3350 C.ar    1  UNL1        0.0343
     14 C           4.1090    1.4420   21.5650 C.3     1  UNL1        0.2525
     15 N           7.4790   -0.6410   20.7190 N.am    1  UNL1       -0.1721
     16 O           5.2910    0.7190   21.2100 O.3     1  UNL1       -0.4700
     17 O           8.3940   -1.9560   22.9000 O.3     1  UNL1       -0.2083
     18 C           8.9150   -0.6450   22.7150 C.3     1  UNL1        0.2517
     19 BR         13.9120   -1.9930   21.3880 Br      1  UNL1       -0.0490
     20 C           5.4820    1.1910   17.5870 C.ar    1  UNL1        0.1021
@<TRIPOS>BOND
     1     6     2   ar
     2     7     4    2
     3     8     2   ar
     4     9     8   ar
     5     9     1   ar
     6    10     3   ar
     7    11     5   ar
     8    12     5   ar
     9    12    10   ar
    10    13    11   ar
    11    13     3   ar
    12    15     8    1
    13    15     7   am
    14    16    14    1
    15    16     2    1
    16    18     7    1
    17    18    17    1
    18    18     5    1
    19    19    13    1
    20    20     6   ar
    21    20     1   ar
