@<TRIPOS>MOLECULE
*****
 17 18 0 0 0
SMALL
GASTEIGER

@<TRIPOS>ATOM
      1 CL         13.6630   -1.6980   21.4520 Cl      1  UNL1       -0.0823
      2 C          12.4350   -0.8810   22.3760 C.ar    1  UNL1        0.0574
      3 C          12.8100    0.0640   23.3020 C.ar    1  UNL1        0.0114
      4 C          11.8320    0.6420   24.0960 C.ar    1  UNL1        0.0006
      5 C          10.5000    0.3010   23.9220 C.ar    1  UNL1       -0.0037
      6 C          11.1120   -1.2300   22.1880 C.ar    1  UNL1        0.0076
      7 C          10.1230   -0.6100   22.9470 C.ar    1  UNL1       -0.0122
      8 C           8.6670   -0.8180   22.6090 C.3     1  UNL1        0.1135
      9 C           8.3060   -0.0510   21.3520 C.2     1  UNL1        0.2501
     10 O           9.0360    0.8210   20.8830 O.2     1  UNL1       -0.2726
     11 N           7.1200   -0.4140   20.7810 N.am    1  UNL1       -0.1760
     12 C           6.6730    0.1090   19.5510 C.ar    1  UNL1        0.1095
     13 C           5.6690    1.0210   19.3270 C.ar    1  UNL1        0.0977
     14 C           4.8240    1.8180   20.2680 C.3     1  UNL1        0.0555
     15 C           7.1530   -0.2530   18.2920 C.ar    1  UNL1        0.1399
     16 N           6.4840    0.3810   17.3370 N.ar    1  UNL1       -0.1453
     17 N           5.5710    1.1560   17.9930 N.ar    1  UNL1       -0.1509
@<TRIPOS>BOND
     1     2     1    1
     2     3     2   ar
     3     4     3   ar
     4     5     4   ar
     5     6     2   ar
     6     7     5   ar
     7     7     6   ar
     8     8     7    1
     9     9     8    1
    10    10     9    2
    11    11     9   am
    12    12    11    1
    13    13    12   ar
    14    14    13    1
    15    15    12   ar
    16    16    15   ar
    17    17    16   ar
    18    17    13   ar
