@<TRIPOS>MOLECULE
*****
 25 28 0 0 0
SMALL
GASTEIGER

@<TRIPOS>ATOM
      1 CL         13.8500   -1.6330   21.5380 Cl      1  UNL1       -0.0799
      2 C          12.5250   -0.9110   22.3890 C.ar    1  UNL1        0.0849
      3 C          12.7630    0.0300   23.3690 C.ar    1  UNL1        0.1536
      4 F          14.0360    0.4030   23.6260 F       1  UNL1       -0.2032
      5 C          11.2280   -1.2520   22.0680 C.ar    1  UNL1        0.0129
      6 C          10.1570   -0.6640   22.7370 C.ar    1  UNL1        0.0213
      7 C          10.4400    0.2700   23.7440 C.ar    1  UNL1        0.1373
      8 C          11.7400    0.6310   24.0550 C.ar    1  UNL1        0.0671
      9 C           8.7250   -1.0280   22.4100 C.3     1  UNL1        0.1074
     10 C           7.9110   -0.9140   23.7080 C.3     1  UNL1        0.0610
     11 C           8.0860    0.4590   24.3180 C.3     1  UNL1        0.2062
     12 O           9.4700    0.8550   24.5240 O.3     1  UNL1       -0.4757
     13 C           8.2430   -0.0750   21.3130 C.2     1  UNL1        0.2495
     14 O           8.5450    1.1190   21.3020 O.2     1  UNL1       -0.2726
     15 N           7.5660   -0.6710   20.3070 N.am    1  UNL1       -0.1774
     16 C           6.5810   -0.1570   19.4340 C.ar    1  UNL1        0.0925
     17 C           5.6260    0.8200   19.8730 C.ar    1  UNL1        0.0184
     18 C           5.1930    0.9520   21.2190 C.ar    1  UNL1        0.0014
     19 C           4.1550    1.7790   21.5500 C.ar    1  UNL1        0.0000
     20 C           3.5060    2.5240   20.5780 C.ar    1  UNL1        0.0001
     21 C           3.8930    2.4480   19.2720 C.ar    1  UNL1        0.0016
     22 C           4.9520    1.5920   18.8810 C.ar    1  UNL1        0.0204
     23 C           5.2880    1.3620   17.5290 C.ar    1  UNL1        0.0989
     24 N           6.1460    0.4450   17.1210 N.ar    1  UNL1       -0.2410
     25 C           6.7420   -0.3000   18.0580 C.ar    1  UNL1        0.1154
@<TRIPOS>BOND
     1     2     1    1
     2     3     2   ar
     3     4     3    1
     4     5     2   ar
     5     6     5   ar
     6     7     6   ar
     7     8     7   ar
     8     8     3   ar
     9     9     6    1
    10    10     9    1
    11    11    10    1
    12    12    11    1
    13    12     7    1
    14     9    13    1
    15    14    13    2
    16    15    13   am
    17    16    15    1
    18    17    16   ar
    19    18    17   ar
    20    19    18   ar
    21    20    19   ar
    22    21    20   ar
    23    22    21   ar
    24    22    17   ar
    25    23    22   ar
    26    24    23   ar
    27    25    24   ar
    28    25    16   ar
