@<TRIPOS>MOLECULE
*****
 26 29 0 0 0
SMALL
GASTEIGER

@<TRIPOS>ATOM
      1 O           9.7000    1.3280   20.9520 O.2     1  UNL1       -0.2701
      2 C           9.1930    0.4040   21.5710 C.2     1  UNL1        0.2742
      3 C           9.8470   -0.0870   22.8810 C.3     1  UNL1        0.1877
      4 C          11.3560   -0.0090   22.8320 C.ar    1  UNL1        0.0453
      5 C          12.0800   -0.6770   21.8500 C.ar    1  UNL1        0.0129
      6 C          13.4540   -0.5610   21.8240 C.ar    1  UNL1        0.0576
      7 CL         14.3420   -1.3810   20.5740 Cl      1  UNL1       -0.0823
      8 C          14.1400    0.1990   22.7500 C.ar    1  UNL1        0.0145
      9 C          13.4350    0.8650   23.7350 C.ar    1  UNL1        0.0375
     10 C          12.0520    0.7670   23.7610 C.ar    1  UNL1        0.1372
     11 O          11.4190    1.5290   24.7100 O.3     1  UNL1       -0.4756
     12 C          10.1420    1.0200   25.1150 C.3     1  UNL1        0.2087
     13 C           9.2280    0.8560   23.9220 C.3     1  UNL1        0.0879
     14 O           9.3520   -1.3940   23.1910 O.3     1  UNL1       -0.3428
     15 C           9.6420   -2.4460   22.2590 C.3     1  UNL1        0.1750
     16 N           8.0190   -0.1730   21.2380 N.am    1  UNL1       -0.1754
     17 C           7.2130    0.1570   20.1400 C.ar    1  UNL1        0.0925
     18 C           5.9780    0.8310   20.3860 C.ar    1  UNL1        0.0184
     19 C           5.4930    1.1400   21.6840 C.ar    1  UNL1        0.0014
     20 C           4.3050    1.7940   21.8500 C.ar    1  UNL1        0.0000
     21 C           3.5480    2.1810   20.7480 C.ar    1  UNL1        0.0001
     22 C           3.9760    1.9070   19.4800 C.ar    1  UNL1        0.0016
     23 C           5.1950    1.2180   19.2630 C.ar    1  UNL1        0.0204
     24 C           5.6910    0.9060   17.9750 C.ar    1  UNL1        0.0989
     25 N           6.8370    0.2800   17.7480 N.ar    1  UNL1       -0.2410
     26 C           7.5640   -0.0880   18.8120 C.ar    1  UNL1        0.1154
@<TRIPOS>BOND
     1     2     1    2
     2     3     2    1
     3     4     3    1
     4     5     4   ar
     5     6     5   ar
     6     7     6    1
     7     8     6   ar
     8     9     8   ar
     9    10     9   ar
    10    10     4   ar
    11    11    10    1
    12    12    11    1
    13    13    12    1
    14    13     3    1
    15     3    14    1
    16    15    14    1
    17    16     2   am
    18    17    16    1
    19    18    17   ar
    20    19    18   ar
    21    20    19   ar
    22    21    20   ar
    23    22    21   ar
    24    23    22   ar
    25    23    18   ar
    26    24    23   ar
    27    25    24   ar
    28    26    25   ar
    29    26    17   ar
