@<TRIPOS>MOLECULE
*****
 27 28 0 0 0
SMALL
GASTEIGER

@<TRIPOS>ATOM
      1 O           5.6440   -2.2960   21.0110 O.2     1  UNL1       -0.2745
      2 C           6.7700   -2.4480   21.4550 C.2     1  UNL1        0.2299
      3 C           7.3330   -3.8360   21.6160 C.3     1  UNL1        0.0857
      4 C           7.2180   -4.6080   20.3380 C.3     1  UNL1        0.0101
      5 N           7.5620   -1.3820   21.7820 N.am    1  UNL1       -0.2480
      6 C           8.7860   -1.5490   22.5180 C.ar    1  UNL1        0.0545
      7 C          10.0070   -1.6480   21.8520 C.ar    1  UNL1        0.0146
      8 C          11.1840   -1.7790   22.5700 C.ar    1  UNL1       -0.0030
      9 C          11.1790   -1.8170   23.9630 C.ar    1  UNL1       -0.0227
     10 C          12.4830   -1.8760   24.7720 C.3     1  UNL1        0.0189
     11 C          13.7110   -2.1180   23.8890 C.3     1  UNL1        0.0044
     12 C          12.4310   -3.0040   25.8150 C.3     1  UNL1        0.0044
     13 C          12.6900   -0.5480   25.5050 C.3     1  UNL1        0.0044
     14 C           9.9520   -1.7410   24.6180 C.ar    1  UNL1       -0.0030
     15 C           8.7690   -1.6060   23.9100 C.ar    1  UNL1        0.0146
     16 C           7.1540    0.0200   21.4770 C.3     1  UNL1        0.1817
     17 C           8.2280    1.0720   21.7990 C.2     1  UNL1        0.2642
     18 O           9.1360    1.3060   21.0080 O.2     1  UNL1       -0.2712
     19 N           8.0680    1.7050   22.9630 N.am    1  UNL1       -0.2037
     20 C           9.0770    2.6020   23.5150 C.3     1  UNL1        0.1153
     21 C          10.3090    1.8510   23.9500 C.3     1  UNL1        0.0253
     22 C           6.5090    0.2740   20.1230 C.ar    1  UNL1        0.0241
     23 C           5.3600    1.0440   20.0130 C.ar    1  UNL1        0.0010
     24 N           6.6480    0.1780   17.7180 N.ar    1  UNL1       -0.2426
     25 C           4.8660    1.3810   18.7670 C.ar    1  UNL1        0.0204
     26 C           5.5410    0.9260   17.6530 C.ar    1  UNL1        0.0989
     27 C           7.1030   -0.1380   18.9360 C.ar    1  UNL1        0.0967
@<TRIPOS>BOND
     1     2     1    2
     2     3     2    1
     3     4     3    1
     4     5     2   am
     5     6     5    1
     6     7     6   ar
     7     8     7   ar
     8     9     8   ar
     9    10     9    1
    10    10    11    1
    11    12    10    1
    12    13    10    1
    13    14     9   ar
    14    15    14   ar
    15    15     6   ar
    16    16     5    1
    17    16    17    1
    18    18    17    2
    19    19    17   am
    20    20    19    1
    21    21    20    1
    22    22    16    1
    23    23    22   ar
    24    25    23   ar
    25    26    25   ar
    26    26    24   ar
    27    27    24   ar
    28    27    22   ar
