@<TRIPOS>MOLECULE
*****
 19 20 0 0 0
SMALL
GASTEIGER

@<TRIPOS>ATOM
      1 F          13.2070   -1.6960   22.0270 F       1  UNL1       -0.2045
      2 C          13.0310   -1.6670   23.3690 C.ar    1  UNL1        0.1361
      3 C          13.8430   -2.4500   24.1570 C.ar    1  UNL1        0.0293
      4 C          13.6920   -2.3820   25.5320 C.ar    1  UNL1        0.0023
      5 C          12.7580   -1.5300   26.0830 C.ar    1  UNL1       -0.0002
      6 C          11.9480   -0.7550   25.2620 C.ar    1  UNL1       -0.0020
      7 C          12.0570   -0.8270   23.8730 C.ar    1  UNL1        0.0058
      8 C          11.1090   -0.0290   23.0020 C.3     1  UNL1        0.0383
      9 C           9.9620   -0.8650   22.3880 C.3     1  UNL1        0.0919
     10 C           9.1140   -0.0550   21.4330 C.2     1  UNL1        0.2459
     11 O           9.4580    1.0600   21.0530 O.2     1  UNL1       -0.2730
     12 N           7.9800   -0.6530   21.0210 N.am    1  UNL1       -0.1779
     13 C           7.1350   -0.0780   20.0300 C.ar    1  UNL1        0.0885
     14 C           5.9440    0.5800   20.4110 C.ar    1  UNL1       -0.0034
     15 C           5.5560    0.7530   21.8580 C.3     1  UNL1        0.0325
     16 C           7.4640   -0.1120   18.6740 C.ar    1  UNL1        0.1151
     17 N           6.7100    0.4330   17.7120 N.ar    1  UNL1       -0.2410
     18 C           5.5740    1.0290   18.0870 C.ar    1  UNL1        0.0987
     19 C           5.1590    1.1250   19.3990 C.ar    1  UNL1        0.0177
@<TRIPOS>BOND
     1     2     1    1
     2     3     2   ar
     3     4     3   ar
     4     5     4   ar
     5     6     5   ar
     6     7     6   ar
     7     7     2   ar
     8     8     7    1
     9     9     8    1
    10    10     9    1
    11    11    10    2
    12    12    10   am
    13    13    12    1
    14    14    13   ar
    15    15    14    1
    16    16    13   ar
    17    17    16   ar
    18    18    17   ar
    19    19    18   ar
    20    19    14   ar
