@<TRIPOS>MOLECULE
*****
 13 14 0 0 0
SMALL
GASTEIGER

@<TRIPOS>ATOM
      1 C           9.1750   -4.8810   26.5250 C.3     1  UNL1        0.1548
      2 C          10.4170   -4.7300   25.8100 C.3     1  UNL1        0.0502
      3 C          10.6580   -3.3210   25.2580 C.3     1  UNL1        0.0750
      4 C           9.7110   -1.5560   24.2340 C.3     1  UNL1        0.0997
      5 C          11.0900   -1.1990   23.6610 C.ar    1  UNL1        0.0009
      6 C          11.9950   -0.0920   24.1940 C.ar    1  UNL1        0.0046
      7 C          13.2090   -0.0400   23.4310 C.ar    1  UNL1        0.0352
      8 C          11.7340   -1.8400   22.5540 C.ar    1  UNL1        0.0325
      9 C           8.3350   -2.8910   25.3120 C.3     1  UNL1        0.0750
     10 C           8.0760   -4.3270   25.7760 C.3     1  UNL1        0.0502
     11 N           9.5510   -2.7440   24.5330 N.3     1  UNL1       -0.2688
     12 O           9.2930   -4.2850   27.7940 O.3     1  UNL1       -0.2231
     13 S          13.1780   -1.1690   22.2730 S.2     1  UNL1       -0.0862
@<TRIPOS>BOND
     1     2     1    1
     2     3     2    1
     3     5     4    1
     4     6     5   ar
     5     7     6   ar
     6     8     5   ar
     7    10     9    1
     8    10     1    1
     9    11     9    1
    10    11     4    1
    11    11     3    1
    12     1    12    1
    13    13     8   ar
    14    13     7   ar
