@<TRIPOS>MOLECULE
*****
 49 51 0 0 0
SMALL
GASTEIGER

@<TRIPOS>ATOM
      1 C         -17.7860   11.6440   36.8880 C.3     1  UNL1        0.0559
      2 C         -18.5920   12.1080   37.9090 C.3     1  UNL1        0.1410
      3 C         -18.4060   13.4210   38.6280 C.3     1  UNL1        0.0343
      4 O         -19.6020   11.2270   38.1700 O.3     1  UNL1       -0.2687
      5 N         -19.4530   10.0950   37.2980 N.3     1  UNL1       -0.0810
      6 C         -18.3390   10.3890   36.5470 C.3     1  UNL1        0.1526
      7 C         -17.8580    9.4790   35.4840 C.3     1  UNL1        0.2442
      8 O         -17.3310    9.9440   34.4890 O.3     1  UNL1       -0.2020
      9 N         -18.0800    8.1880   35.6950 N.3     1  UNL1       -0.1853
     10 C         -17.7370    7.1990   34.7050 C.3     1  UNL1        0.1226
     11 C         -18.7630    7.3670   33.6160 C.3     1  UNL1        0.2417
     12 O         -19.8530    7.8060   33.9060 O.3     1  UNL1       -0.2021
     13 C         -17.8460    5.8110   35.2840 C.3     1  UNL1        0.0232
     14 N         -18.4060    7.0730   32.3610 N.3     1  UNL1       -0.1854
     15 C         -19.2780    7.1830   31.2020 C.3     1  UNL1        0.1225
     16 C         -19.3980    5.8430   30.5410 C.3     1  UNL1        0.2417
     17 O         -18.4090    5.1290   30.2810 O.3     1  UNL1       -0.2021
     18 C         -18.5970    8.2010   30.2800 C.3     1  UNL1        0.0201
     19 C         -19.1680    8.2480   28.8440 C.3     1  UNL1        0.0016
     20 C         -18.5480    9.5890   30.9300 C.3     1  UNL1        0.0016
     21 N         -20.6590    5.5270   30.2930 N.3     1  UNL1       -0.1854
     22 C         -21.0850    4.3120   29.6140 C.3     1  UNL1        0.1226
     23 C         -20.7820    4.5490   28.1690 C.3     1  UNL1        0.2416
     24 O         -21.2280    5.5710   27.6450 O.3     1  UNL1       -0.2021
     25 C         -22.6080    4.3050   29.7730 C.3     1  UNL1        0.0216
     26 C         -23.2060    3.0470   30.4160 C.3     1  UNL1        0.0015
     27 C         -22.2070    2.1950   31.2000 C.3     1  UNL1        0.0000
     28 C         -24.3660    3.4360   31.3100 C.3     1  UNL1        0.0000
     29 C         -19.8680    4.1000   26.0560 C.3     1  UNL1        0.0756
     30 C         -20.6680    3.1770   25.1420 C.3     1  UNL1        0.0228
     31 C         -22.1680    3.3900   25.2590 C.3     1  UNL1        0.0658
     32 C         -22.6540    3.9640   23.9640 C.3     1  UNL1        0.2690
     33 C         -18.3620    4.1030   25.7230 C.3     1  UNL1        0.0215
     34 C         -17.7630    5.4810   26.1720 C.3     1  UNL1        0.0503
     35 C         -18.2300    6.7230   25.3150 C.3     1  UNL1        0.0229
     36 C         -17.0050    7.7680   25.6590 C.3     1  UNL1        0.0914
     37 N         -15.9130    6.6890   25.5530 N.3     1  UNL1       -0.1893
     38 C         -16.2610    5.4810   26.0140 C.3     1  UNL1        0.2255
     39 O         -15.5510    4.4920   26.2970 O.3     1  UNL1       -0.2037
     40 N         -20.0530    3.6920   27.4600 N.3     1  UNL1       -0.1895
     41 O         -22.9580    3.1910   23.0620 O.3     1  UNL1       -0.1899
     42 C         -23.8340    6.2080   24.3130 C.3     1  UNL1        0.1448
     43 O         -22.7390    5.4230   23.7830 O.3     1  UNL1       -0.3285
     44 C         -22.7030    7.7110   26.0810 C.3     1  UNL1        0.0025
     45 C         -22.3290    8.9660   26.5880 C.3     1  UNL1        0.0001
     46 C         -22.6510   10.1310   25.8790 C.3     1  UNL1        0.0000
     47 C         -23.3570   10.0360   24.6670 C.3     1  UNL1        0.0001
     48 C         -23.7350    8.7810   24.1560 C.3     1  UNL1        0.0025
     49 C         -23.4070    7.5920   24.8560 C.3     1  UNL1        0.0298
@<TRIPOS>BOND
     1     2     1    1
     2     3     2    1
     3     4     2    1
     4     5     4    1
     5     6     5    1
     6     6     1    1
     7     7     6    1
     8     8     7    1
     9     9     7    1
    10    10     9    1
    11    11    10    1
    12    12    11    1
    13    10    13    1
    14    14    11    1
    15    15    14    1
    16    16    15    1
    17    17    16    1
    18    18    15    1
    19    18    19    1
    20    20    18    1
    21    21    16    1
    22    22    21    1
    23    23    22    1
    24    24    23    1
    25    22    25    1
    26    26    25    1
    27    26    27    1
    28    28    26    1
    29    29    30    1
    30    31    30    1
    31    32    31    1
    32    33    29    1
    33    34    33    1
    34    35    34    1
    35    36    35    1
    36    37    36    1
    37    38    34    1
    38    38    37    1
    39    39    38    1
    40    40    29    1
    41    40    23    1
    42    41    32    1
    43    43    32    1
    44    43    42    1
    45    45    44    1
    46    46    45    1
    47    47    46    1
    48    48    47    1
    49    49    48    1
    50    49    44    1
    51    49    42    1
