@<TRIPOS>MOLECULE
*****
 38 43 0 0 0
SMALL
GASTEIGER

@<TRIPOS>ATOM
      1 O           9.3110    1.4160   20.9020 O.2     1  UNL1       -0.2727
      2 C           8.8160    0.4710   21.5040 C.2     1  UNL1        0.2492
      3 N           7.6220   -0.0770   21.1510 N.am    1  UNL1       -0.1774
      4 C           6.7860    0.2890   20.0660 C.ar    1  UNL1        0.0925
      5 C           5.6150    1.0710   20.3350 C.ar    1  UNL1        0.0184
      6 C           5.2030    1.4550   21.6380 C.ar    1  UNL1        0.0014
      7 C           4.0970    2.2360   21.8260 C.ar    1  UNL1        0.0000
      8 C           3.3470    2.6730   20.7460 C.ar    1  UNL1        0.0001
      9 C           3.7020    2.3340   19.4710 C.ar    1  UNL1        0.0016
     10 C           4.8460    1.5300   19.2300 C.ar    1  UNL1        0.0204
     11 C           5.2880    1.1850   17.9280 C.ar    1  UNL1        0.0989
     12 N           6.3630    0.4470   17.6760 N.ar    1  UNL1       -0.2410
     13 C           7.0770    0.0130   18.7270 C.ar    1  UNL1        0.1154
     14 C           9.5200   -0.1270   22.7420 C.3     1  UNL1        0.1046
     15 C           8.9190    0.6440   23.9420 C.3     1  UNL1        0.0607
     16 C           9.5280    2.0240   24.0860 C.3     1  UNL1        0.2062
     17 O          10.9630    1.9860   24.2290 O.3     1  UNL1       -0.4757
     18 C          11.0440    0.1050   22.6690 C.ar    1  UNL1        0.0209
     19 C          11.6470    1.1710   23.3600 C.ar    1  UNL1        0.1350
     20 C          13.0110    1.4140   23.2700 C.ar    1  UNL1        0.0374
     21 C          13.8020    0.5830   22.4970 C.ar    1  UNL1        0.0145
     22 C          11.8640   -0.7310   21.9080 C.ar    1  UNL1        0.0106
     23 C          13.2200   -0.4720   21.8270 C.ar    1  UNL1        0.0576
     24 CL         14.2080   -1.4620   20.7810 Cl      1  UNL1       -0.0823
     25 C           9.2160   -1.6470   22.7990 C.3     1  UNL1        0.0982
     26 C           9.7990   -2.4200   23.9660 C.2     1  UNL1        0.2264
     27 O          10.5380   -1.9080   24.8030 O.2     1  UNL1       -0.2748
     28 N           9.4940   -3.7420   24.0300 N.am    1  UNL1       -0.2792
     29 C          10.0220   -4.6430   25.0720 C.3     1  UNL1        0.0979
     30 C           9.6930   -6.0330   24.5240 C.3     1  UNL1        0.0236
     31 C           8.4650   -5.8240   23.6600 C.3     1  UNL1        0.0233
     32 C           8.6600   -4.4560   23.0440 C.3     1  UNL1        0.0935
     33 C           9.4750   -4.3990   26.4850 C.3     1  UNL1        0.1273
     34 N           8.0140   -4.4260   26.5770 N.ar    1  UNL1       -0.3061
     35 C           7.1570   -3.4400   26.2360 C.ar    1  UNL1        0.1786
     36 N           5.9030   -3.7700   26.4560 N.ar    1  UNL1       -0.2223
     37 C           5.9620   -5.0460   26.9720 C.ar    1  UNL1        0.1193
     38 C           7.2450   -5.4650   27.0510 C.ar    1  UNL1        0.0981
@<TRIPOS>BOND
     1     2     1    2
     2     3     2   am
     3     4     3    1
     4     5     4   ar
     5     6     5   ar
     6     7     6   ar
     7     8     7   ar
     8     9     8   ar
     9    10     9   ar
    10    10     5   ar
    11    11    10   ar
    12    12    11   ar
    13    13    12   ar
    14    13     4   ar
    15    14     2    1
    16    15    14    1
    17    16    15    1
    18    17    16    1
    19    18    14    1
    20    19    18   ar
    21    19    17    1
    22    20    19   ar
    23    21    20   ar
    24    22    18   ar
    25    23    22   ar
    26    23    21   ar
    27    24    23    1
    28    14    25    1
    29    26    25    1
    30    27    26    2
    31    28    26   am
    32    29    28    1
    33    30    29    1
    34    31    30    1
    35    32    31    1
    36    32    28    1
    37    29    33    1
    38    34    33    1
    39    35    34   ar
    40    36    35   ar
    41    37    36   ar
    42    38    37   ar
    43    38    34   ar
