
     RDKit          3D

 38 43  0  0  0  0  0  0  0  0999 V2000
    9.3110    1.4160   20.9020 O   0  0  0  0  0  0  0  0  0  0  0  0
    8.8160    0.4710   21.5040 C   0  0  0  0  0  0  0  0  0  0  0  0
    7.6220   -0.0770   21.1510 N   0  0  0  0  0  0  0  0  0  0  0  0
    6.7860    0.2890   20.0660 C   0  0  0  0  0  0  0  0  0  0  0  0
    5.6150    1.0710   20.3350 C   0  0  0  0  0  0  0  0  0  0  0  0
    5.2030    1.4550   21.6380 C   0  0  0  0  0  0  0  0  0  0  0  0
    4.0970    2.2360   21.8260 C   0  0  0  0  0  0  0  0  0  0  0  0
    3.3470    2.6730   20.7460 C   0  0  0  0  0  0  0  0  0  0  0  0
    3.7020    2.3340   19.4710 C   0  0  0  0  0  0  0  0  0  0  0  0
    4.8460    1.5300   19.2300 C   0  0  0  0  0  0  0  0  0  0  0  0
    5.2880    1.1850   17.9280 C   0  0  0  0  0  0  0  0  0  0  0  0
    6.3630    0.4470   17.6760 N   0  0  0  0  0  0  0  0  0  0  0  0
    7.0770    0.0130   18.7270 C   0  0  0  0  0  0  0  0  0  0  0  0
    9.5200   -0.1270   22.7420 C   0  0  2  0  0  0  0  0  0  0  0  0
    8.9190    0.6440   23.9420 C   0  0  0  0  0  0  0  0  0  0  0  0
    9.5280    2.0240   24.0860 C   0  0  0  0  0  0  0  0  0  0  0  0
   10.9630    1.9860   24.2290 O   0  0  0  0  0  0  0  0  0  0  0  0
   11.0440    0.1050   22.6690 C   0  0  0  0  0  0  0  0  0  0  0  0
   11.6470    1.1710   23.3600 C   0  0  0  0  0  0  0  0  0  0  0  0
   13.0110    1.4140   23.2700 C   0  0  0  0  0  0  0  0  0  0  0  0
   13.8020    0.5830   22.4970 C   0  0  0  0  0  0  0  0  0  0  0  0
   11.8640   -0.7310   21.9080 C   0  0  0  0  0  0  0  0  0  0  0  0
   13.2200   -0.4720   21.8270 C   0  0  0  0  0  0  0  0  0  0  0  0
   14.2080   -1.4620   20.7810 Cl  0  0  0  0  0  0  0  0  0  0  0  0
    9.2160   -1.6470   22.7990 C   0  0  0  0  0  0  0  0  0  0  0  0
    9.7990   -2.4200   23.9660 C   0  0  0  0  0  0  0  0  0  0  0  0
   10.5380   -1.9080   24.8030 O   0  0  0  0  0  0  0  0  0  0  0  0
    9.4940   -3.7420   24.0300 N   0  0  0  0  0  0  0  0  0  0  0  0
   10.0220   -4.6430   25.0720 C   0  0  2  0  0  0  0  0  0  0  0  0
    9.6930   -6.0330   24.5240 C   0  0  0  0  0  0  0  0  0  0  0  0
    8.4650   -5.8240   23.6600 C   0  0  0  0  0  0  0  0  0  0  0  0
    8.6600   -4.4560   23.0440 C   0  0  0  0  0  0  0  0  0  0  0  0
    9.4750   -4.3990   26.4850 C   0  0  0  0  0  0  0  0  0  0  0  0
    8.0140   -4.4260   26.5770 N   0  0  0  0  0  0  0  0  0  0  0  0
    7.1570   -3.4400   26.2360 C   0  0  0  0  0  0  0  0  0  0  0  0
    5.9030   -3.7700   26.4560 N   0  0  0  0  0  0  0  0  0  0  0  0
    5.9620   -5.0460   26.9720 C   0  0  0  0  0  0  0  0  0  0  0  0
    7.2450   -5.4650   27.0510 C   0  0  0  0  0  0  0  0  0  0  0  0
  2  1  2  0
  3  2  1  0
  4  3  1  0
  5  4  1  0
  6  5  2  0
  7  6  1  0
  8  7  2  0
  9  8  1  0
 10  9  2  0
 10  5  1  0
 11 10  1  0
 12 11  2  0
 13 12  1  0
 13  4  2  0
 14  2  1  0
 15 14  1  0
 16 15  1  0
 17 16  1  0
 18 14  1  0
 19 18  2  0
 19 17  1  0
 20 19  1  0
 21 20  2  0
 22 18  1  0
 23 22  2  0
 23 21  1  0
 24 23  1  0
 14 25  1  1
 26 25  1  0
 27 26  2  0
 28 26  1  0
 29 28  1  0
 30 29  1  0
 31 30  1  0
 32 31  1  0
 32 28  1  0
 29 33  1  1
 34 33  1  0
 35 34  1  0
 36 35  2  0
 37 36  1  0
 38 37  2  0
 38 34  1  0
M  END
> <BADATOMS>
35;36;33;37;34
> <BADCOMMENTS>
Weak Density;Weak Density;Weak Density;Weak Density;Weak Density
> <BADATOMNAMES>
[HET]1.N36;[HET]1.C37;[HET]1.N34;[HET]1.C38;[HET]1.C35