@<TRIPOS>MOLECULE
*****
 24 27 0 0 0
SMALL
GASTEIGER

@<TRIPOS>ATOM
      1 O           9.3070    1.1330   21.0940 O.2     1  UNL1       -0.2742
      2 C           8.8240    0.1930   21.6960 C.2     1  UNL1        0.2330
      3 C           9.4460   -0.2910   23.0030 C.3     1  UNL1        0.0993
      4 C          10.9540   -0.0900   23.0080 C.ar    1  UNL1       -0.0130
      5 C          11.5460    0.8090   23.8870 C.ar    1  UNL1       -0.0038
      6 C          12.9200    1.0080   23.8780 C.ar    1  UNL1        0.0006
      7 C          13.7210    0.3240   22.9770 C.ar    1  UNL1        0.0114
      8 C          11.7620   -0.7990   22.1230 C.ar    1  UNL1        0.0076
      9 C          13.1270   -0.5710   22.1130 C.ar    1  UNL1        0.0574
     10 CL         14.1140   -1.4130   20.9500 Cl      1  UNL1       -0.0823
     11 N           7.6850   -0.4400   21.2600 N.am    1  UNL1       -0.2569
     12 C           7.1930   -1.7470   21.7380 C.3     1  UNL1        0.0983
     13 C           7.5860   -1.9830   23.1770 C.3     1  UNL1        0.0227
     14 C           9.0780   -1.7420   23.3650 C.3     1  UNL1        0.0153
     15 C           6.8920    0.1130   20.2000 C.ar    1  UNL1        0.0730
     16 C           5.7280    0.9080   20.4380 C.ar    1  UNL1        0.0167
     17 C           5.2610    1.2690   21.7330 C.ar    1  UNL1        0.0013
     18 C           4.1440    2.0390   21.8880 C.ar    1  UNL1        0.0000
     19 C           3.4400    2.4980   20.7800 C.ar    1  UNL1        0.0001
     20 C           3.8420    2.1730   19.5140 C.ar    1  UNL1        0.0016
     21 C           4.9910    1.3670   19.3070 C.ar    1  UNL1        0.0204
     22 C           5.4560    0.9980   18.0200 C.ar    1  UNL1        0.0989
     23 N           6.5370    0.2610   17.8040 N.ar    1  UNL1       -0.2410
     24 C           7.2250   -0.1580   18.8770 C.ar    1  UNL1        0.1137
@<TRIPOS>BOND
     1     2     1    2
     2     3     2    1
     3     3     4    1
     4     5     4   ar
     5     6     5   ar
     6     7     6   ar
     7     8     4   ar
     8     9     8   ar
     9     9     7   ar
    10    10     9    1
    11    11     2   am
    12    12    11    1
    13    13    12    1
    14    14    13    1
    15    14     3    1
    16    15    11    1
    17    16    15   ar
    18    17    16   ar
    19    18    17   ar
    20    19    18   ar
    21    20    19   ar
    22    21    20   ar
    23    21    16   ar
    24    22    21   ar
    25    23    22   ar
    26    24    23   ar
    27    24    15   ar
