@<TRIPOS>MOLECULE
*****
 18 20 0 0 0
SMALL
GASTEIGER

@<TRIPOS>ATOM
      1 C          22.1230   18.2850    4.0530 C.ar    1  UNL1        0.1934
      2 C          21.2570   19.3620    3.9210 C.ar    1  UNL1        0.0418
      3 C          20.5910   19.8420    5.0380 C.ar    1  UNL1        0.0033
      4 C          20.7700   19.2450    6.2810 C.ar    1  UNL1       -0.0001
      5 C          21.6330   18.1630    6.4120 C.ar    1  UNL1        0.0006
      6 C          22.3030   17.6860    5.2910 C.ar    1  UNL1        0.0384
      7 C          23.2620   16.5110    5.3890 C.3     1  UNL1        0.1449
      8 C          23.7420   14.3090    4.3150 C.ar    1  UNL1        0.2369
      9 C          25.4760   12.9870    4.5310 C.ar    1  UNL1        0.1019
     10 C          26.6920   12.3220    4.8820 C.ar    1  UNL1        0.0207
     11 C          27.0460   11.1400    4.2350 C.ar    1  UNL1        0.0016
     12 C          26.2200   10.6090    3.2400 C.ar    1  UNL1        0.0016
     13 C          25.0390   11.2610    2.8980 C.ar    1  UNL1        0.0207
     14 C          24.6690   12.4660    3.5640 C.ar    1  UNL1        0.1019
     15 N          22.8370   15.4250    4.5260 N.pl3   1  UNL1       -0.1989
     16 N          24.8800   14.1270    4.9810 N.ar    1  UNL1       -0.2109
     17 N          23.6040   13.3020    3.4520 N.ar    1  UNL1       -0.2109
     18 O          22.8100   17.7850    2.9420 O.3     1  UNL1       -0.2869
@<TRIPOS>BOND
     1     2     1   ar
     2     3     2   ar
     3     4     3   ar
     4     5     4   ar
     5     6     5   ar
     6     6     1   ar
     7     7     6    1
     8    10     9   ar
     9    11    10   ar
    10    12    11   ar
    11    13    12   ar
    12    14    13   ar
    13    14     9   ar
    14    15     8    1
    15    15     7    1
    16    16     9   ar
    17    16     8   ar
    18    17    14   ar
    19    17     8   ar
    20    18     1    1
