@<TRIPOS>MOLECULE
*****
 32 36 0 0 0
SMALL
GASTEIGER

@<TRIPOS>ATOM
      1 O           7.6980    2.1230   26.6570 O.2     1  UNL1       -0.1498
      2 S           7.1150    1.2930   25.6470 S.O2    1  UNL1        0.0978
      3 O           6.2100    1.8550   24.6940 O.2     1  UNL1       -0.1498
      4 C           6.4190   -0.0160   26.4820 C.ar    1  UNL1        0.2894
      5 N           5.5350   -0.9200   26.0180 N.ar    1  UNL1       -0.2065
      6 C           5.2880   -1.8080   27.0230 C.ar    1  UNL1        0.1226
      7 C           6.0380   -1.3970   28.0760 C.ar    1  UNL1        0.1226
      8 N           6.7470   -0.2690   27.7330 N.ar    1  UNL1       -0.2065
      9 N           8.3190    0.5450   24.8240 N.3     1  UNL1       -0.1474
     10 C           9.5460    1.3110   24.5670 C.3     1  UNL1        0.1219
     11 C           7.9370   -0.4460   23.7970 C.3     1  UNL1        0.1098
     12 C           8.8280   -0.7370   22.5870 C.3     1  UNL1        0.1182
     13 C          10.2840   -0.4660   22.9140 C.ar    1  UNL1       -0.0142
     14 C          10.6100    0.4490   23.9220 C.ar    1  UNL1       -0.0079
     15 C          11.9480    0.6250   24.2700 C.ar    1  UNL1       -0.0023
     16 C          12.9560   -0.0450   23.6010 C.ar    1  UNL1        0.0111
     17 C          11.3030   -1.1440   22.2440 C.ar    1  UNL1        0.0074
     18 C          12.6210   -0.8970   22.5760 C.ar    1  UNL1        0.0574
     19 CL         13.8840   -1.5680   21.5790 Cl      1  UNL1       -0.0823
     20 C           8.3750    0.1010   21.3900 C.2     1  UNL1        0.2507
     21 O           8.5090    1.3200   21.3630 O.2     1  UNL1       -0.2726
     22 N           7.6930   -0.5930   20.4550 N.am    1  UNL1       -0.1773
     23 C           6.6600   -0.2000   19.5750 C.ar    1  UNL1        0.0925
     24 C           5.6640    0.7450   19.9920 C.ar    1  UNL1        0.0184
     25 C           5.2620    0.9180   21.3440 C.ar    1  UNL1        0.0014
     26 C           4.1950    1.7060   21.6670 C.ar    1  UNL1        0.0000
     27 C           3.4830    2.3730   20.6810 C.ar    1  UNL1        0.0001
     28 C           3.8290    2.2450   19.3670 C.ar    1  UNL1        0.0016
     29 C           4.9140    1.4180   18.9840 C.ar    1  UNL1        0.0204
     30 C           5.2010    1.1120   17.6350 C.ar    1  UNL1        0.0989
     31 N           6.0790    0.2010   17.2500 N.ar    1  UNL1       -0.2410
     32 C           6.7630   -0.4400   18.2070 C.ar    1  UNL1        0.1154
@<TRIPOS>BOND
     1     2     1    2
     2     3     2    2
     3     2     4    1
     4     5     4   ar
     5     6     5   ar
     6     7     6   ar
     7     8     4   ar
     8     8     7   ar
     9     9     2    1
    10    10     9    1
    11    11     9    1
    12    12    11    1
    13    13    12    1
    14    14    13   ar
    15    14    10    1
    16    15    14   ar
    17    16    15   ar
    18    17    13   ar
    19    18    17   ar
    20    18    16   ar
    21    19    18    1
    22    12    20    1
    23    21    20    2
    24    22    20   am
    25    23    22    1
    26    24    23   ar
    27    25    24   ar
    28    26    25   ar
    29    27    26   ar
    30    28    27   ar
    31    29    28   ar
    32    29    24   ar
    33    30    29   ar
    34    31    30   ar
    35    32    31   ar
    36    32    23   ar
