@<TRIPOS>MOLECULE
*****
 32 33 0 0 0
SMALL
GASTEIGER

@<TRIPOS>ATOM
      1 O           5.6330   -2.5290   21.4920 O.2     1  UNL1       -0.2745
      2 C           6.8050   -2.4290   21.1660 C.2     1  UNL1        0.2299
      3 C           7.3360   -3.2430   20.0030 C.3     1  UNL1        0.0857
      4 C           8.0540   -4.5010   20.4140 C.3     1  UNL1        0.0101
      5 N           7.5960   -1.4280   21.6590 N.am    1  UNL1       -0.2480
      6 C           8.8330   -1.6940   22.3480 C.ar    1  UNL1        0.0545
      7 C           8.8540   -1.8350   23.7380 C.ar    1  UNL1        0.0146
      8 C          10.0620   -1.9110   24.4160 C.ar    1  UNL1       -0.0030
      9 C          11.2750   -1.8520   23.7340 C.ar    1  UNL1       -0.0227
     10 C          12.6000   -1.8330   24.5090 C.3     1  UNL1        0.0189
     11 C          12.6620   -2.9730   25.5370 C.3     1  UNL1        0.0044
     12 C          13.8010   -1.9820   23.5760 C.3     1  UNL1        0.0044
     13 C          12.7390   -0.5050   25.2510 C.3     1  UNL1        0.0044
     14 C          11.2400   -1.7470   22.3450 C.ar    1  UNL1       -0.0030
     15 C          10.0400   -1.6770   21.6570 C.ar    1  UNL1        0.0146
     16 C           7.1800   -0.0200   21.4330 C.3     1  UNL1        0.1817
     17 C           6.5330    0.2890   20.0880 C.ar    1  UNL1        0.0241
     18 C           5.3520    1.0140   20.0190 C.ar    1  UNL1        0.0010
     19 N           6.6910    0.3570   17.6820 N.ar    1  UNL1       -0.2426
     20 C           4.8530    1.4130   18.7930 C.ar    1  UNL1        0.0204
     21 C           5.5560    1.0630   17.6550 C.ar    1  UNL1        0.0989
     22 C           7.1520   -0.0150   18.8820 C.ar    1  UNL1        0.0967
     23 C           8.2550    1.0140   21.8050 C.2     1  UNL1        0.2642
     24 O           9.1260    1.3310   20.9970 O.2     1  UNL1       -0.2712
     25 N           8.1480    1.5600   23.0170 N.am    1  UNL1       -0.2031
     26 C           8.9290    2.7160   23.4360 C.3     1  UNL1        0.1269
     27 C          10.3190    2.3410   23.9080 C.3     1  UNL1        0.1329
     28 C          11.3490    2.7890   22.9160 C.2     1  UNL1        0.3188
     29 O          11.3070    2.5420   21.7390 O.2     1  UNL1       -0.2500
     30 O          12.3080    3.5200   23.4870 O.3     1  UNL1       -0.4485
     31 C          13.3990    3.9510   22.6180 C.3     1  UNL1        0.2086
     32 C          13.4320    5.3970   22.5870 C.3     1  UNL1        0.0513
@<TRIPOS>BOND
     1     2     1    2
     2     3     2    1
     3     4     3    1
     4     5     2   am
     5     6     5    1
     6     7     6   ar
     7     8     7   ar
     8     9     8   ar
     9    10     9    1
    10    10    11    1
    11    12    10    1
    12    13    10    1
    13    14     9   ar
    14    15     6   ar
    15    15    14   ar
    16    16     5    1
    17    17    16    1
    18    18    17   ar
    19    20    18   ar
    20    21    20   ar
    21    21    19   ar
    22    22    19   ar
    23    22    17   ar
    24    16    23    1
    25    24    23    2
    26    25    23   am
    27    26    25    1
    28    27    26    1
    29    28    27    1
    30    29    28    2
    31    30    28    1
    32    31    30    1
    33    32    31    1
