@<TRIPOS>MOLECULE
*****
 21 23 0 0 0
SMALL
GASTEIGER

@<TRIPOS>ATOM
      1 O           9.0380    0.8750   21.1140 O.2     1  UNL1       -0.2726
      2 C           8.4480   -0.1450   21.4580 C.2     1  UNL1        0.2501
      3 C           8.9560   -1.0080   22.5960 C.3     1  UNL1        0.1135
      4 C          10.4300   -0.7630   22.8360 C.ar    1  UNL1       -0.0122
      5 C          10.8550    0.1550   23.7870 C.ar    1  UNL1       -0.0037
      6 C          12.1980    0.4750   23.9140 C.ar    1  UNL1        0.0006
      7 C          13.1420   -0.1220   23.0930 C.ar    1  UNL1        0.0114
      8 C          11.3820   -1.3830   22.0300 C.ar    1  UNL1        0.0076
      9 C          12.7150   -1.0530   22.1670 C.ar    1  UNL1        0.0574
     10 CL         13.8920   -1.8690   21.1680 Cl      1  UNL1       -0.0823
     11 N           7.4410   -0.6750   20.7630 N.am    1  UNL1       -0.1758
     12 C           6.6060   -0.2080   19.7320 C.ar    1  UNL1        0.1100
     13 C           5.5720    0.7150   20.0810 C.ar    1  UNL1        0.0996
     14 N           5.1510    0.7510   21.3810 N.ar    1  UNL1       -0.2424
     15 C           4.0580    1.4550   21.6480 C.ar    1  UNL1        0.0989
     16 C           3.3090    2.1330   20.6930 C.ar    1  UNL1        0.0207
     17 C           3.7240    2.1160   19.3960 C.ar    1  UNL1        0.0047
     18 C           4.9070    1.4220   19.0530 C.ar    1  UNL1        0.0382
     19 C           5.3830    1.2390   17.7330 C.ar    1  UNL1        0.1004
     20 N           6.4170    0.4700   17.4150 N.ar    1  UNL1       -0.2409
     21 C           6.9900   -0.2330   18.3970 C.ar    1  UNL1        0.1169
@<TRIPOS>BOND
     1     2     1    2
     2     3     2    1
     3     4     3    1
     4     5     4   ar
     5     6     5   ar
     6     7     6   ar
     7     8     4   ar
     8     9     8   ar
     9     9     7   ar
    10    10     9    1
    11    11     2   am
    12    12    11    1
    13    13    12   ar
    14    14    13   ar
    15    15    14   ar
    16    16    15   ar
    17    17    16   ar
    18    18    17   ar
    19    18    13   ar
    20    19    18   ar
    21    20    19   ar
    22    21    20   ar
    23    21    12   ar
