@<TRIPOS>MOLECULE
*****
 23 25 0 0 0
SMALL
GASTEIGER

@<TRIPOS>ATOM
      1 N           6.5150    0.0690   21.0510 N.am    1  UNL1       -0.1594
      2 N           7.9350   -0.7800   22.5920 N.am    1  UNL1       -0.1898
      3 C          13.9560   -2.0660   24.8810 C.ar    1  UNL1       -0.0000
      4 C           6.0480    0.3370   19.7520 C.ar    1  UNL1        0.0941
      5 O           8.0710    0.5380   25.8150 O.3     1  UNL1       -0.3537
      6 C          11.5130   -1.8150   23.5560 C.ar    1  UNL1       -0.0205
      7 C           4.8850    1.0840   19.6240 C.ar    1  UNL1        0.0198
      8 C           9.0860   -0.8980   23.4970 C.3     1  UNL1        0.0891
      9 C           8.4990    1.2610   24.6480 C.3     1  UNL1        0.1439
     10 C           6.8350    0.1610   18.6170 C.ar    1  UNL1        0.1154
     11 C           5.4430    1.4530   17.3490 C.ar    1  UNL1        0.0990
     12 C          12.9400   -2.9590   25.1340 C.ar    1  UNL1       -0.0003
     13 C          12.5530   -0.9300   23.3010 C.ar    1  UNL1       -0.0042
     14 C           9.5730    0.5110   23.8770 C.3     1  UNL1        0.0525
     15 C          11.7240   -2.8350   24.4770 C.ar    1  UNL1       -0.0042
     16 C          13.7630   -1.0510   23.9650 C.ar    1  UNL1       -0.0003
     17 C           8.5970   -1.6120   24.7670 C.3     1  UNL1        0.0525
     18 C           7.8140   -0.0530   21.4630 C.2     1  UNL1        0.3435
     19 N           6.5480    0.7020   17.4310 N.ar    1  UNL1       -0.2410
     20 O           8.7620    0.5020   20.8990 O.2     1  UNL1       -0.2488
     21 C          10.2070   -1.7070   22.8060 C.3     1  UNL1        0.0466
     22 C           4.5860    1.6660   18.4070 C.ar    1  UNL1        0.0220
     23 C           7.5580   -0.7660   25.4790 C.3     1  UNL1        0.1439
@<TRIPOS>BOND
     1     4     1    1
     2     7     4   ar
     3     8     2    1
     4     9     5    1
     5    10     4   ar
     6    12     3   ar
     7    13     6   ar
     8    14     9    1
     9    14     8    1
    10    15    12   ar
    11    15     6   ar
    12    16    13   ar
    13    16     3   ar
    14    17     8    1
    15    18     1   am
    16    18     2   am
    17    19    11   ar
    18    19    10   ar
    19    20    18    2
    20     8    21    1
    21    21     6    1
    22    22    11   ar
    23    22     7   ar
    24    23    17    1
    25    23     5    1
