@<TRIPOS>MOLECULE
*****
 16 17 0 0 0
SMALL
GASTEIGER

@<TRIPOS>ATOM
      1 C           9.1840    6.1610   22.6700 C.3     1  UNL1        0.0964
      2 C          10.4650    5.8560   23.4370 C.2     1  UNL1        0.2419
      3 C          12.8550    4.9860   23.3950 C.3     1  UNL1        0.1199
      4 C          13.2290    3.5570   22.9930 C.3     1  UNL1        0.0514
      5 C          12.2400    2.4750   23.4550 C.ar    1  UNL1        0.0002
      6 C          11.1170    2.6540   24.2470 C.ar    1  UNL1        0.0946
      7 C          11.2140    0.5030   23.7510 C.ar    1  UNL1        0.0812
      8 C          10.9820   -0.8920   23.6260 C.ar    1  UNL1        0.0214
      9 C          11.8610   -1.6720   22.8790 C.ar    1  UNL1        0.0312
     10 C          12.9660   -1.0800   22.2570 C.ar    1  UNL1        0.1402
     11 C          13.1920    0.2890   22.3870 C.ar    1  UNL1        0.0309
     12 C          12.2980    1.0920   23.1460 C.ar    1  UNL1        0.0175
     13 F          13.8310   -1.8370   21.5240 F       1  UNL1       -0.2042
     14 N          11.6140    5.3230   22.7250 N.am    1  UNL1       -0.2051
     15 N          10.5240    1.4790   24.4090 N.ar    1  UNL1       -0.2442
     16 O          10.5070    6.0440   24.6010 O.2     1  UNL1       -0.2733
@<TRIPOS>BOND
     1     2     1    1
     2     4     3    1
     3     5     4    1
     4     6     5   ar
     5     8     7   ar
     6     9     8   ar
     7    10     9   ar
     8    11    10   ar
     9    12    11   ar
    10    12     7   ar
    11    12     5   ar
    12    13    10    1
    13    14     2   am
    14    14     3    1
    15    15     7   ar
    16    15     6   ar
    17    16     2    2
