@<TRIPOS>MOLECULE
*****
 21 23 0 0 0
SMALL
GASTEIGER

@<TRIPOS>ATOM
      1 CL         13.9210   -1.8410   21.1700 Cl      1  UNL1       -0.0823
      2 C          12.8240   -0.9610   22.1900 C.ar    1  UNL1        0.0574
      3 C          13.3320   -0.0990   23.1420 C.ar    1  UNL1        0.0114
      4 C          12.4570    0.4750   24.0510 C.ar    1  UNL1        0.0006
      5 C          11.0980    0.2090   23.9750 C.ar    1  UNL1       -0.0037
      6 C          11.4730   -1.2220   22.0940 C.ar    1  UNL1        0.0076
      7 C          10.5920   -0.6230   22.9870 C.ar    1  UNL1       -0.0122
      8 C           9.1050   -0.8170   22.8240 C.3     1  UNL1        0.1119
      9 C           8.5730   -0.0870   21.6040 C.2     1  UNL1        0.2338
     10 O           9.2740    0.6890   20.9730 O.2     1  UNL1       -0.2742
     11 N           7.2650   -0.2720   21.2830 N.am    1  UNL1       -0.2572
     12 C           6.2780   -0.8570   22.2030 C.3     1  UNL1        0.0986
     13 C           5.3610    0.2480   22.7130 C.3     1  UNL1        0.0266
     14 C           4.8180    1.1580   21.6000 C.3     1  UNL1        0.0309
     15 C           5.4550    0.9280   20.2470 C.ar    1  UNL1        0.0114
     16 C           4.8330    1.3970   19.0850 C.ar    1  UNL1        0.1054
     17 N           3.6280    2.0700   19.1430 N.pl3   1  UNL1       -0.1267
     18 C           6.6590    0.2210   20.1100 C.ar    1  UNL1        0.0703
     19 C           7.1960    0.0250   18.8440 C.ar    1  UNL1        0.1135
     20 N           6.6290    0.4640   17.7190 N.ar    1  UNL1       -0.2396
     21 C           5.4770    1.1350   17.8310 C.ar    1  UNL1        0.1166
@<TRIPOS>BOND
     1     2     1    1
     2     3     2   ar
     3     4     3   ar
     4     5     4   ar
     5     6     2   ar
     6     7     6   ar
     7     7     5   ar
     8     8     7    1
     9     9     8    1
    10    10     9    2
    11    11     9   am
    12    12    11    1
    13    13    12    1
    14    14    13    1
    15    15    14    1
    16    16    15   ar
    17    17    16    1
    18    18    15   ar
    19    18    11    1
    20    19    18   ar
    21    20    19   ar
    22    21    16   ar
    23    21    20   ar
