@<TRIPOS>MOLECULE
*****
 18 20 0 0 0
SMALL
GASTEIGER

@<TRIPOS>ATOM
      1 C          -0.7300   29.8920   -9.0420 C.2     1  UNL1        0.2491
      2 C          -2.6100   31.1830   -8.0130 C.3     1  UNL1        0.0937
      3 C          -3.1840   32.4600   -8.6240 C.3     1  UNL1        0.0215
      4 C          -2.3080   33.6950   -8.4050 C.3     1  UNL1        0.0018
      5 C          -1.0390   33.6790   -9.2590 C.3     1  UNL1        0.0018
      6 C           0.1870   33.1320   -8.5380 C.3     1  UNL1        0.0215
      7 C          -0.1400   31.8980   -7.7150 C.3     1  UNL1        0.0937
      8 C          -1.7080   28.8580   -9.5970 C.ar    1  UNL1        0.0568
      9 C          -2.1950   28.8740  -10.8880 C.ar    1  UNL1        0.0078
     10 C          -3.0790   27.8870  -11.3240 C.ar    1  UNL1        0.0403
     11 C          -3.4850   26.8550  -10.4580 C.ar    1  UNL1        0.1764
     12 C          -4.5100   25.1600   -9.3950 C.3     1  UNL1        0.4294
     13 C          -3.0100   26.8340   -9.1860 C.ar    1  UNL1        0.1766
     14 C          -2.1100   27.8410   -8.7470 C.ar    1  UNL1        0.0447
     15 N          -1.1830   31.0220   -8.2390 N.am    1  UNL1       -0.2761
     16 O           0.4320   29.7290   -9.2360 O.2     1  UNL1       -0.2699
     17 O          -4.3550   25.7610  -10.6470 O.3     1  UNL1       -0.4346
     18 O          -3.5690   25.7230   -8.5180 O.3     1  UNL1       -0.4346
@<TRIPOS>BOND
     1     3     2    1
     2     4     3    1
     3     5     4    1
     4     6     5    1
     5     7     6    1
     6     8     1    1
     7     9     8   ar
     8    10     9   ar
     9    11    10   ar
    10    13    11   ar
    11    14    13   ar
    12    14     8   ar
    13    15     7    1
    14    15     2    1
    15    15     1   am
    16    16     1    2
    17    17    12    1
    18    17    11    1
    19    18    13    1
    20    18    12    1
