@<TRIPOS>MOLECULE
*****
 27 29 0 0 0
SMALL
GASTEIGER

@<TRIPOS>ATOM
      1 N           7.5170   -1.5130   21.5240 N.am    1  UNL1       -0.1978
      2 C          11.4320    0.5600   23.1470 C.ar    1  UNL1        0.1724
      3 C           5.9240   -0.4750   20.0710 C.ar    1  UNL1        0.0613
      4 C           4.2940    0.2990   21.8070 C.ar    1  UNL1        0.0313
      5 O           9.9010   -1.0610   22.2980 O.3     1  UNL1       -0.4743
      6 C          10.1220   -3.1880   23.5150 C.3     1  UNL1        0.0492
      7 O           6.6400    1.0650   16.9300 O.2     1  UNL1       -0.2652
      8 C          12.7160    1.0880   23.2050 C.ar    1  UNL1        0.0400
      9 C          11.2090   -0.6710   22.4870 C.ar    1  UNL1        0.1721
     10 C           2.7230    2.0490   21.2560 C.ar    1  UNL1        0.0312
     11 C          12.2750   -1.3380   21.8980 C.ar    1  UNL1        0.0400
     12 C          13.5410   -0.7740   21.9280 C.ar    1  UNL1        0.0033
     13 C           6.0480    0.7630   17.9650 C.ar    1  UNL1        0.2794
     14 C           6.3560   -1.6400   20.8840 C.2     1  UNL1        0.2651
     15 C           3.2320    1.1100   22.1140 C.ar    1  UNL1        0.1402
     16 F           2.6130    0.9210   23.3100 F       1  UNL1       -0.2042
     17 C           7.9600   -2.4780   22.5240 C.3     1  UNL1        0.1587
     18 C           6.4730   -0.2760   18.8420 C.ar    1  UNL1        0.0671
     19 C           4.8590    0.4020   20.5370 C.ar    1  UNL1        0.0246
     20 C           4.3820    1.3790   19.6450 C.ar    1  UNL1        0.0848
     21 C          10.4390    2.5400   24.0640 C.3     1  UNL1        0.2526
     22 N           4.9910    1.5200   18.4000 N.ar    1  UNL1       -0.2079
     23 O          10.3080    1.1970   23.6010 O.3     1  UNL1       -0.4684
     24 O           5.6480   -2.6370   20.9930 O.2     1  UNL1       -0.2684
     25 C           9.2610   -1.9860   23.2240 C.3     1  UNL1        0.1877
     26 C          13.7590    0.4260   22.5770 C.ar    1  UNL1        0.0033
     27 C           3.3130    2.1920   20.0120 C.ar    1  UNL1        0.0215
@<TRIPOS>BOND
     1     8     2   ar
     2     9     5    1
     3     9     2   ar
     4    11     9   ar
     5    12    11   ar
     6    13     7    2
     7    14     3    1
     8    14     1   am
     9    15    10   ar
    10    15     4   ar
    11    16    15    1
    12    17     1    1
    13    18    13   ar
    14    18     3   ar
    15    19     4   ar
    16    19     3   ar
    17    20    19   ar
    18    22    20   ar
    19    22    13   ar
    20    23    21    1
    21    23     2    1
    22    24    14    2
    23    25    17    1
    24    25     6    1
    25    25     5    1
    26    26    12   ar
    27    26     8   ar
    28    27    20   ar
    29    27    10   ar
