@<TRIPOS>MOLECULE
*****
 21 23 0 0 0
SMALL
GASTEIGER

@<TRIPOS>ATOM
      1 N           6.5380    0.6270   17.4080 N.ar    1  UNL1       -0.2410
      2 N           9.6320   -0.6450   23.4010 N.ar    1  UNL1       -0.3177
      3 C           5.4100    0.7490   19.9830 C.ar    1  UNL1       -0.0034
      4 C          12.9440    0.5430   23.9330 C.ar    1  UNL1        0.0023
      5 C           9.3920    0.1360   24.5090 C.ar    1  UNL1        0.0763
      6 C           4.8480    1.4320   18.9110 C.ar    1  UNL1        0.0177
      7 C           8.2450   -0.3990   21.4160 C.2     1  UNL1        0.2687
      8 C           6.5430   -0.0390   19.7190 C.ar    1  UNL1        0.0886
      9 C           7.0660   -0.0640   18.4240 C.ar    1  UNL1        0.1151
     10 C          11.5800    0.2750   24.0520 C.ar    1  UNL1        0.0173
     11 C          13.0740   -0.9200   22.0460 C.ar    1  UNL1        0.0591
     12 C          10.5400    0.7090   24.9350 C.ar    1  UNL1        0.0201
     13 C          13.6900   -0.0450   22.9280 C.ar    1  UNL1        0.0115
     14 C          11.7200   -1.1970   22.1090 C.ar    1  UNL1        0.0286
     15 C           4.8920    0.9580   21.3830 C.3     1  UNL1        0.0325
     16 N           7.1320   -0.7780   20.7660 N.am    1  UNL1       -0.1763
     17 O           8.9050    0.6000   21.1280 O.2     1  UNL1       -0.2709
     18 C           8.6080   -1.2920   22.5910 C.3     1  UNL1        0.1939
     19 C           5.4390    1.3500   17.6630 C.ar    1  UNL1        0.0987
     20 C          10.9850   -0.5850   23.1140 C.ar    1  UNL1        0.0612
     21 CL         14.0390   -1.7330   20.8510 Cl      1  UNL1       -0.0822
@<TRIPOS>BOND
     1     5     2   ar
     2     6     3   ar
     3     8     3   ar
     4     9     8   ar
     5     9     1   ar
     6    10     4   ar
     7    12     5   ar
     8    12    10   ar
     9    13    11   ar
    10    13     4   ar
    11    14    11   ar
    12    15     3    1
    13    16     8    1
    14    16     7   am
    15    17     7    2
    16    18     7    1
    17    18     2    1
    18    19     6   ar
    19    19     1   ar
    20    20     2   ar
    21    20    14   ar
    22    20    10   ar
    23    21    11    1
