@<TRIPOS>MOLECULE
*****
 90 84 0 0 0
SMALL
GASTEIGER

@<TRIPOS>ATOM
      1 N         -16.6610   12.0310   39.9200 N.3     1  THR1       -0.1259
      2 CA        -17.5670   12.0780   38.7370 C.3     1  THR1        0.1691
      3 C         -18.2490   10.7190   38.5650 C.3     1  THR1        0.2458
      4 O         -18.0440    9.8150   39.3810 O.3     1  THR1       -0.2020
      5 CB        -16.7750   12.4120   37.4660 C.3     1  THR1        0.1735
      6 OG1       -15.8330   13.4520   37.7590 O.3     1  THR1       -0.2215
      7 CG2       -17.7130   12.8810   36.3630 C.3     1  THR1        0.0372
      8 N         -19.0500   10.5750   37.5090 N.3     2  SER2       -0.1825
      9 CA        -19.7690    9.3260   37.2470 C.3     2  SER2        0.1554
     10 C         -19.3520    8.6400   35.9470 C.3     2  SER2        0.2443
     11 O         -18.9920    9.2960   34.9710 O.3     2  SER2       -0.2020
     12 CB        -21.2740    9.5930   37.2070 C.3     2  SER2        0.2035
     13 OG        -21.5890   10.5230   36.1850 O.3     2  SER2       -0.2187
     14 N         -19.4150    7.3130   35.9420 N.3     3  ALA3       -0.1853
     15 CA        -19.0540    6.5220   34.7720 C.3     3  ALA3        0.1226
     16 C         -20.0150    6.7880   33.6160 C.3     3  ALA3        0.2417
     17 O         -21.0540    7.4250   33.7910 O.3     3  ALA3       -0.2021
     18 CB        -19.0590    5.0350   35.1240 C.3     3  ALA3        0.0232
     19 N         -19.6660    6.2790   32.4390 N.3     4  VAL4       -0.1854
     20 CA        -20.4790    6.4720   31.2480 C.3     4  VAL4        0.1225
     21 C         -20.6900    5.1910   30.4400 C.3     4  VAL4        0.2417
     22 O         -19.7300    4.5600   30.0120 O.3     4  VAL4       -0.2021
     23 CB        -19.8210    7.5180   30.3150 C.3     4  VAL4        0.0201
     24 CG1       -20.5330    7.5630   28.9600 C.3     4  VAL4        0.0016
     25 CG2       -19.8380    8.8730   30.9800 C.3     4  VAL4        0.0016
     26 N         -21.9430    4.8050   30.2370 N.3     5  LEU5       -0.1854
     27 CA        -22.2250    3.6360   29.4210 C.3     5  LEU5        0.1226
     28 C         -22.0800    4.1880   28.0130 C.3     5  LEU5        0.2417
     29 O         -22.8280    5.0800   27.6070 O.3     5  LEU5       -0.2021
     30 CB        -23.6430    3.1280   29.6580 C.3     5  LEU5        0.0216
     31 CG        -23.8570    2.5170   31.0410 C.3     5  LEU5        0.0015
     32 CD1       -25.3230    2.0850   31.2210 C.3     5  LEU5        0.0000
     33 CD2       -22.9080    1.3360   31.2040 C.3     5  LEU5        0.0000
     34 N         -21.1110    3.6720   27.2700 N.3     6  GLN6       -0.1854
     35 CA        -20.8670    4.1850   25.9320 C.3     6  GLN6        0.1227
     36 C         -21.6990    3.6290   24.7850 C.3     6  GLN6        0.2418
     37 O         -21.1570    3.1400   23.8040 O.3     6  GLN6       -0.2021
     38 CB        -19.3780    4.0600   25.6140 C.3     6  GLN6        0.0258
     39 CG        -18.5380    4.9900   26.4510 C.3     6  GLN6        0.0544
     40 CD        -17.0600    4.8430   26.1910 C.3     6  GLN6        0.2419
     41 OE1       -16.4410    3.8730   26.6170 O.3     6  GLN6       -0.2022
     42 NE2       -16.4840    5.8000   25.4780 N.3     6  GLN6       -0.0968
     43 N         -23.0180    3.7100   24.8990 N.3     7  SER7       -0.1827
     44 CA        -23.8660    3.2380   23.8120 C.3     7  SER7        0.1554
     45 C         -24.0000    4.3800   22.7920 C.3     7  SER7        0.2444
     46 O         -23.4640    5.4700   23.0000 O.3     7  SER7       -0.2020
     47 CB        -25.2330    2.8120   24.3460 C.3     7  SER7        0.2035
     48 OG        -25.8210    3.8340   25.1250 O.3     7  SER7       -0.2187
     49 N         -24.6860    4.1280   21.6820 N.3     8  GLY8       -0.1837
     50 CA        -24.8460    5.1570   20.6720 C.3     8  GLY8        0.1425
     51 C         -26.2920    5.5840   20.5270 C.3     8  GLY8        0.2432
     52 O         -27.1380    5.1890   21.3290 O.3     8  GLY8       -0.2020
     53 N         -26.5730    6.3890   19.5030 N.3     9  PHE9       -0.1853
     54 CA        -27.9220    6.8940   19.2220 C.3     9  PHE9        0.1226
     55 C         -28.2100    6.6250   17.7410 C.3     9  PHE9        0.2417
     56 O         -27.3080    6.7530   16.9130 O.3     9  PHE9       -0.2021
     57 CB        -27.9690    8.4020   19.4840 C.3     9  PHE9        0.0216
     58 CG        -29.3580    8.9730   19.5400 C.3     9  PHE9        0.0015
     59 CD1       -30.1290    8.8510   20.6950 C.3     9  PHE9        0.0000
     60 CD2       -29.8950    9.6430   18.4440 C.3     9  PHE9        0.0000
     61 CE1       -31.4120    9.3890   20.7580 C.3     9  PHE9        0.0000
     62 CE2       -31.1780   10.1830   18.4960 C.3     9  PHE9        0.0000
     63 CZ        -31.9380   10.0560   19.6550 C.3     9  PHE9        0.0000
     64 N         -29.4440    6.2660   17.3900 N.3    10  ARG10      -0.1854
     65 CA        -29.7350    5.9920   15.9830 C.3    10  ARG10       0.1226
     66 C         -30.6830    6.9590   15.2760 C.3    10  ARG10       0.2418
     67 O         -30.5220    7.2200   14.0830 O.3    10  ARG10      -0.2021
     68 CB        -30.2550    4.5590   15.8000 C.3    10  ARG10       0.0231
     69 CG        -29.5700    3.8310   14.6410 C.3    10  ARG10       0.0205
     70 CD        -30.3490    2.6330   14.1500 C.3    10  ARG10       0.0917
     71 NE        -31.6770    3.0240   13.6880 N.3    10  ARG10      -0.1845
     72 CZ        -32.4210    2.3130   12.8470 C.3    10  ARG10       0.2569
     73 NH1       -31.9650    1.1650   12.3640 N.3    10  ARG10      -0.0923
     74 NH2       -33.6250    2.7490   12.4920 N.3    10  ARG10      -0.0923
     75 N         -31.6660    7.4840   15.9960 N.3    11  LYS11      -0.1814
     76 CA        -32.6370    8.4180   15.4170 C.3    11  LYS11       0.1671
     77 C         -33.7200    7.6880   14.6250 C.3    11  LYS11       0.4414
     78 O         -34.9110    7.9180   14.9210 O.2    11  LYS11      -0.2654
     79 CB        -31.9370    9.4400   14.5110 C.3    11  LYS11       0.0256
     80 CG        -30.8320   10.2210   15.2020 C.3    11  LYS11       0.0032
     81 CD        -30.1250   11.1740   14.2490 C.3    11  LYS11       0.0206
     82 CE        -28.9850   11.9010   14.9490 C.3    11  LYS11       0.1093
     83 NZ        -28.2940   12.8520   14.0410 N.3    11  LYS11      -0.1314
     84 OXT       -33.3660    6.9000   13.7240 O.2    11  LYS11      -0.2654
     85 O         -23.5820    7.4240   18.7890 O.3     1  HOH1        0.0000
     86 O         -33.8760    4.1010   10.0990 O.3     2  HOH2        0.0000
     87 O         -34.5150    9.4890   17.5280 O.3     3  HOH3        0.0000
     88 O         -24.8830   11.1670   36.1750 O.3     4  HOH4        0.0000
     89 O         -36.3190    5.5240   14.0400 O.3     5  HOH5        0.0000
     90 O         -34.3290    0.7240    9.3020 O.3     6  HOH6        0.0000
@<TRIPOS>BOND
     1     2     1    1
     2     3     2    1
     3     4     3    1
     4     5     2    1
     5     6     5    1
     6     5     7    1
     7     8     3    1
     8     9     8    1
     9    10     9    1
    10    11    10    1
    11     9    12    1
    12    13    12    1
    13    14    10    1
    14    15    14    1
    15    16    15    1
    16    17    16    1
    17    15    18    1
    18    19    16    1
    19    20    19    1
    20    21    20    1
    21    22    21    1
    22    23    20    1
    23    23    24    1
    24    25    23    1
    25    26    21    1
    26    27    26    1
    27    28    27    1
    28    29    28    1
    29    27    30    1
    30    31    30    1
    31    31    32    1
    32    33    31    1
    33    34    28    1
    34    35    34    1
    35    36    35    1
    36    37    36    1
    37    35    38    1
    38    39    38    1
    39    40    39    1
    40    41    40    1
    41    42    40    1
    42    43    36    1
    43    44    43    1
    44    45    44    1
    45    46    45    1
    46    44    47    1
    47    48    47    1
    48    49    45    1
    49    50    49    1
    50    51    50    1
    51    52    51    1
    52    53    51    1
    53    54    53    1
    54    55    54    1
    55    56    55    1
    56    54    57    1
    57    58    57    1
    58    59    58    1
    59    60    58    1
    60    61    59    1
    61    62    60    1
    62    63    62    1
    63    63    61    1
    64    64    55    1
    65    65    64    1
    66    66    65    1
    67    67    66    1
    68    65    68    1
    69    69    68    1
    70    70    69    1
    71    71    70    1
    72    72    71    1
    73    73    72    1
    74    74    72    1
    75    75    66    1
    76    76    75    1
    77    77    76    1
    78    78    77    1
    79    76    79    1
    80    80    79    1
    81    81    80    1
    82    82    81    1
    83    83    82    1
    84    84    77    1
