
     RDKit          3D

 90 84  0  0  0  0  0  0  0  0999 V2000
  -16.6610   12.0310   39.9200 N   0  0  0  0  0  0  0  0  0  0  0  0
  -17.5670   12.0780   38.7370 C   0  0  2  0  0  0  0  0  0  0  0  0
  -18.2490   10.7190   38.5650 C   0  0  0  0  0  0  0  0  0  0  0  0
  -18.0440    9.8150   39.3810 O   0  0  0  0  0  0  0  0  0  0  0  0
  -16.7750   12.4120   37.4660 C   0  0  2  0  0  0  0  0  0  0  0  0
  -15.8330   13.4520   37.7590 O   0  0  0  0  0  0  0  0  0  0  0  0
  -17.7130   12.8810   36.3630 C   0  0  0  0  0  0  0  0  0  0  0  0
  -19.0500   10.5750   37.5090 N   0  0  0  0  0  0  0  0  0  0  0  0
  -19.7690    9.3260   37.2470 C   0  0  2  0  0  0  0  0  0  0  0  0
  -19.3520    8.6400   35.9470 C   0  0  0  0  0  0  0  0  0  0  0  0
  -18.9920    9.2960   34.9710 O   0  0  0  0  0  0  0  0  0  0  0  0
  -21.2740    9.5930   37.2070 C   0  0  0  0  0  0  0  0  0  0  0  0
  -21.5890   10.5230   36.1850 O   0  0  0  0  0  0  0  0  0  0  0  0
  -19.4150    7.3130   35.9420 N   0  0  0  0  0  0  0  0  0  0  0  0
  -19.0540    6.5220   34.7720 C   0  0  2  0  0  0  0  0  0  0  0  0
  -20.0150    6.7880   33.6160 C   0  0  0  0  0  0  0  0  0  0  0  0
  -21.0540    7.4250   33.7910 O   0  0  0  0  0  0  0  0  0  0  0  0
  -19.0590    5.0350   35.1240 C   0  0  0  0  0  0  0  0  0  0  0  0
  -19.6660    6.2790   32.4390 N   0  0  0  0  0  0  0  0  0  0  0  0
  -20.4790    6.4720   31.2480 C   0  0  2  0  0  0  0  0  0  0  0  0
  -20.6900    5.1910   30.4400 C   0  0  0  0  0  0  0  0  0  0  0  0
  -19.7300    4.5600   30.0120 O   0  0  0  0  0  0  0  0  0  0  0  0
  -19.8210    7.5180   30.3150 C   0  0  1  0  0  0  0  0  0  0  0  0
  -20.5330    7.5630   28.9600 C   0  0  0  0  0  0  0  0  0  0  0  0
  -19.8380    8.8730   30.9800 C   0  0  0  0  0  0  0  0  0  0  0  0
  -21.9430    4.8050   30.2370 N   0  0  0  0  0  0  0  0  0  0  0  0
  -22.2250    3.6360   29.4210 C   0  0  2  0  0  0  0  0  0  0  0  0
  -22.0800    4.1880   28.0130 C   0  0  0  0  0  0  0  0  0  0  0  0
  -22.8280    5.0800   27.6070 O   0  0  0  0  0  0  0  0  0  0  0  0
  -23.6430    3.1280   29.6580 C   0  0  0  0  0  0  0  0  0  0  0  0
  -23.8570    2.5170   31.0410 C   0  0  1  0  0  0  0  0  0  0  0  0
  -25.3230    2.0850   31.2210 C   0  0  0  0  0  0  0  0  0  0  0  0
  -22.9080    1.3360   31.2040 C   0  0  0  0  0  0  0  0  0  0  0  0
  -21.1110    3.6720   27.2700 N   0  0  0  0  0  0  0  0  0  0  0  0
  -20.8670    4.1850   25.9320 C   0  0  2  0  0  0  0  0  0  0  0  0
  -21.6990    3.6290   24.7850 C   0  0  0  0  0  0  0  0  0  0  0  0
  -21.1570    3.1400   23.8040 O   0  0  0  0  0  0  0  0  0  0  0  0
  -19.3780    4.0600   25.6140 C   0  0  0  0  0  0  0  0  0  0  0  0
  -18.5380    4.9900   26.4510 C   0  0  0  0  0  0  0  0  0  0  0  0
  -17.0600    4.8430   26.1910 C   0  0  0  0  0  0  0  0  0  0  0  0
  -16.4410    3.8730   26.6170 O   0  0  0  0  0  0  0  0  0  0  0  0
  -16.4840    5.8000   25.4780 N   0  0  0  0  0  0  0  0  0  0  0  0
  -23.0180    3.7100   24.8990 N   0  0  0  0  0  0  0  0  0  0  0  0
  -23.8660    3.2380   23.8120 C   0  0  2  0  0  0  0  0  0  0  0  0
  -24.0000    4.3800   22.7920 C   0  0  0  0  0  0  0  0  0  0  0  0
  -23.4640    5.4700   23.0000 O   0  0  0  0  0  0  0  0  0  0  0  0
  -25.2330    2.8120   24.3460 C   0  0  0  0  0  0  0  0  0  0  0  0
  -25.8210    3.8340   25.1250 O   0  0  0  0  0  0  0  0  0  0  0  0
  -24.6860    4.1280   21.6820 N   0  0  0  0  0  0  0  0  0  0  0  0
  -24.8460    5.1570   20.6720 C   0  0  0  0  0  0  0  0  0  0  0  0
  -26.2920    5.5840   20.5270 C   0  0  0  0  0  0  0  0  0  0  0  0
  -27.1380    5.1890   21.3290 O   0  0  0  0  0  0  0  0  0  0  0  0
  -26.5730    6.3890   19.5030 N   0  0  0  0  0  0  0  0  0  0  0  0
  -27.9220    6.8940   19.2220 C   0  0  2  0  0  0  0  0  0  0  0  0
  -28.2100    6.6250   17.7410 C   0  0  0  0  0  0  0  0  0  0  0  0
  -27.3080    6.7530   16.9130 O   0  0  0  0  0  0  0  0  0  0  0  0
  -27.9690    8.4020   19.4840 C   0  0  0  0  0  0  0  0  0  0  0  0
  -29.3580    8.9730   19.5400 C   0  0  0  0  0  0  0  0  0  0  0  0
  -30.1290    8.8510   20.6950 C   0  0  0  0  0  0  0  0  0  0  0  0
  -29.8950    9.6430   18.4440 C   0  0  0  0  0  0  0  0  0  0  0  0
  -31.4120    9.3890   20.7580 C   0  0  0  0  0  0  0  0  0  0  0  0
  -31.1780   10.1830   18.4960 C   0  0  0  0  0  0  0  0  0  0  0  0
  -31.9380   10.0560   19.6550 C   0  0  0  0  0  0  0  0  0  0  0  0
  -29.4440    6.2660   17.3900 N   0  0  0  0  0  0  0  0  0  0  0  0
  -29.7350    5.9920   15.9830 C   0  0  2  0  0  0  0  0  0  0  0  0
  -30.6830    6.9590   15.2760 C   0  0  0  0  0  0  0  0  0  0  0  0
  -30.5220    7.2200   14.0830 O   0  0  0  0  0  0  0  0  0  0  0  0
  -30.2550    4.5590   15.8000 C   0  0  0  0  0  0  0  0  0  0  0  0
  -29.5700    3.8310   14.6410 C   0  0  0  0  0  0  0  0  0  0  0  0
  -30.3490    2.6330   14.1500 C   0  0  0  0  0  0  0  0  0  0  0  0
  -31.6770    3.0240   13.6880 N   0  0  0  0  0  0  0  0  0  0  0  0
  -32.4210    2.3130   12.8470 C   0  0  0  0  0  0  0  0  0  0  0  0
  -31.9650    1.1650   12.3640 N   0  0  0  0  0  0  0  0  0  0  0  0
  -33.6250    2.7490   12.4920 N   0  0  0  0  0  0  0  0  0  0  0  0
  -31.6660    7.4840   15.9960 N   0  0  0  0  0  0  0  0  0  0  0  0
  -32.6370    8.4180   15.4170 C   0  0  2  0  0  0  0  0  0  0  0  0
  -33.7200    7.6880   14.6250 C   0  0  0  0  0  0  0  0  0  0  0  0
  -34.9110    7.9180   14.9210 O   0  0  0  0  0  0  0  0  0  0  0  0
  -31.9370    9.4400   14.5110 C   0  0  0  0  0  0  0  0  0  0  0  0
  -30.8320   10.2210   15.2020 C   0  0  0  0  0  0  0  0  0  0  0  0
  -30.1250   11.1740   14.2490 C   0  0  0  0  0  0  0  0  0  0  0  0
  -28.9850   11.9010   14.9490 C   0  0  0  0  0  0  0  0  0  0  0  0
  -28.2940   12.8520   14.0410 N   0  0  0  0  0  0  0  0  0  0  0  0
  -33.3660    6.9000   13.7240 O   0  0  0  0  0  0  0  0  0  0  0  0
  -23.5820    7.4240   18.7890 O   0  0  0  0  0  0  0  0  0  0  0  0
  -33.8760    4.1010   10.0990 O   0  0  0  0  0  0  0  0  0  0  0  0
  -34.5150    9.4890   17.5280 O   0  0  0  0  0  0  0  0  0  0  0  0
  -24.8830   11.1670   36.1750 O   0  0  0  0  0  0  0  0  0  0  0  0
  -36.3190    5.5240   14.0400 O   0  0  0  0  0  0  0  0  0  0  0  0
  -34.3290    0.7240    9.3020 O   0  0  0  0  0  0  0  0  0  0  0  0
  2  1  1  1
  3  2  1  0
  4  3  1  0
  5  2  1  0
  6  5  1  0
  5  7  1  6
  8  3  1  0
  9  8  1  0
 10  9  1  0
 11 10  1  0
  9 12  1  6
 13 12  1  0
 14 10  1  0
 15 14  1  0
 16 15  1  0
 17 16  1  0
 15 18  1  1
 19 16  1  0
 20 19  1  1
 21 20  1  0
 22 21  1  0
 23 20  1  0
 23 24  1  6
 25 23  1  0
 26 21  1  0
 27 26  1  0
 28 27  1  0
 29 28  1  0
 27 30  1  6
 31 30  1  0
 31 32  1  6
 33 31  1  0
 34 28  1  0
 35 34  1  0
 36 35  1  0
 37 36  1  0
 35 38  1  6
 39 38  1  0
 40 39  1  0
 41 40  1  0
 42 40  1  0
 43 36  1  0
 44 43  1  0
 45 44  1  0
 46 45  1  0
 44 47  1  1
 48 47  1  0
 49 45  1  0
 50 49  1  0
 51 50  1  0
 52 51  1  0
 53 51  1  0
 54 53  1  0
 55 54  1  0
 56 55  1  0
 54 57  1  6
 58 57  1  0
 59 58  1  0
 60 58  1  0
 61 59  1  0
 62 60  1  0
 63 62  1  0
 63 61  1  0
 64 55  1  0
 65 64  1  0
 66 65  1  0
 67 66  1  0
 65 68  1  1
 69 68  1  0
 70 69  1  0
 71 70  1  0
 72 71  1  0
 73 72  1  0
 74 72  1  0
 75 66  1  0
 76 75  1  0
 77 76  1  0
 78 77  1  0
 76 79  1  6
 80 79  1  0
 81 80  1  0
 82 81  1  0
 83 82  1  0
 84 77  1  0
M  END
