@<TRIPOS>MOLECULE
*****
 22 24 0 0 0
SMALL
GASTEIGER

@<TRIPOS>ATOM
      1 S           3.6400   -2.5720   26.1590 S.2     1  UNL1       -0.0734
      2 N           7.1510   -3.7190   21.3370 N.am    1  UNL1       -0.2767
      3 N           5.1440   -3.9150   27.7570 N.ar    1  UNL1       -0.2411
      4 C           3.6190   -3.7960   32.0960 C.ar    1  UNL1       -0.0003
      5 C           6.7530   -3.7110   20.0390 C.2     1  UNL1        0.2262
      6 C           2.7700   -4.0420   28.4030 C.3     1  UNL1        0.0788
      7 C           8.1640   -2.8660   21.9680 C.3     1  UNL1        0.1107
      8 C           6.4200   -4.5030   22.3350 C.3     1  UNL1        0.1107
      9 C           5.9550   -3.2770   26.8640 C.ar    1  UNL1        0.1026
     10 C           5.3600   -2.5070   25.9300 C.ar    1  UNL1        0.0436
     11 C           6.0130   -1.7220   24.8360 C.3     1  UNL1        0.1074
     12 C           2.8360   -1.6690   31.3680 C.ar    1  UNL1       -0.0003
     13 C           3.4110   -4.3090   30.8270 C.ar    1  UNL1       -0.0039
     14 C           2.9210   -3.5050   29.8080 C.ar    1  UNL1       -0.0157
     15 C           3.3310   -2.4770   32.3660 C.ar    1  UNL1       -0.0000
     16 C           2.6300   -2.1790   30.0960 C.ar    1  UNL1       -0.0039
     17 C           7.2700   -2.6320   19.1410 C.3     1  UNL1        0.0948
     18 N           6.6980   -2.6520   23.9440 N.3     1  UNL1       -0.2655
     19 O           5.9460   -4.5240   19.6300 O.2     1  UNL1       -0.2749
     20 C           3.9060   -3.6220   27.5190 C.ar    1  UNL1        0.0924
     21 C           7.4880   -1.9110   22.9390 C.3     1  UNL1        0.0942
     22 C           5.7230   -3.5570   23.2920 C.3     1  UNL1        0.0942
@<TRIPOS>BOND
     1     5     2   am
     2     7     2    1
     3     8     2    1
     4     9     3   ar
     5    10     1   ar
     6    10     9   ar
     7    11    10    1
     8    13     4   ar
     9    14    13   ar
    10    14     6    1
    11    15    12   ar
    12    15     4   ar
    13    16    14   ar
    14    16    12   ar
    15    17     5    1
    16    18    11    1
    17    19     5    2
    18    20     1   ar
    19    20     6    1
    20    20     3   ar
    21    21    18    1
    22    21     7    1
    23    22    18    1
    24    22     8    1
