@<TRIPOS>MOLECULE
*****
 17 19 0 0 0
SMALL
GASTEIGER

@<TRIPOS>ATOM
      1 O           9.6760    1.1600   21.1860 O.2     1  UNL1       -0.2730
      2 C           9.5290   -0.0370   21.4310 C.2     1  UNL1        0.2451
      3 C          10.5240   -0.8090   22.2690 C.3     1  UNL1        0.0786
      4 C          11.0800   -0.0910   23.4920 C.3     1  UNL1        0.0091
      5 C          11.3880   -0.9080   24.7510 C.3     1  UNL1        0.0005
      6 C          12.8350   -1.4050   24.8270 C.3     1  UNL1        0.0000
      7 C          13.2210   -2.1750   23.5790 C.3     1  UNL1        0.0000
      8 C          13.0890   -1.3150   22.3160 C.3     1  UNL1        0.0005
      9 C          11.9530   -0.2790   22.2900 C.3     1  UNL1        0.0091
     10 N           8.4950   -0.7700   20.9730 N.am    1  UNL1       -0.1780
     11 C           7.5150   -0.2440   20.0850 C.ar    1  UNL1        0.0885
     12 C           6.2770    0.2080   20.5960 C.ar    1  UNL1       -0.0034
     13 C           5.9140    0.0530   22.0540 C.3     1  UNL1        0.0325
     14 C           7.7480   -0.1070   18.7130 C.ar    1  UNL1        0.1151
     15 N           6.8700    0.4280   17.8580 N.ar    1  UNL1       -0.2410
     16 C           5.7060    0.8550   18.3590 C.ar    1  UNL1        0.0987
     17 C           5.3790    0.7810   19.6970 C.ar    1  UNL1        0.0177
@<TRIPOS>BOND
     1     2     1    2
     2     3     2    1
     3     4     3    1
     4     4     5    1
     5     6     5    1
     6     7     6    1
     7     8     7    1
     8     9     3    1
     9     9     8    1
    10     9     4    1
    11    10     2   am
    12    11    10    1
    13    12    11   ar
    14    13    12    1
    15    14    11   ar
    16    15    14   ar
    17    16    15   ar
    18    17    16   ar
    19    17    12   ar
