@<TRIPOS>MOLECULE
*****
 18 19 0 0 0
SMALL
GASTEIGER

@<TRIPOS>ATOM
      1 C          11.0670    0.0910   23.8470 C.ar    1  UNL1       -0.0036
      2 F          13.9060   -1.5900   21.4260 F       1  UNL1       -0.2042
      3 N           6.6120    0.5380   17.6010 N.ar    1  UNL1       -0.2410
      4 C          12.9620   -1.0170   22.2300 C.ar    1  UNL1        0.1398
      5 C           5.6150    0.8140   20.2140 C.ar    1  UNL1       -0.0034
      6 C          13.3730   -0.1440   23.2050 C.ar    1  UNL1        0.0296
      7 C           5.1270    1.0640   21.6180 C.3     1  UNL1        0.0325
      8 C          10.6740   -0.7820   22.8400 C.ar    1  UNL1       -0.0108
      9 C           4.9680    1.3870   19.1270 C.ar    1  UNL1        0.0177
     10 C           8.6860   -0.1940   21.4560 C.2     1  UNL1        0.2500
     11 N           7.4690   -0.5500   21.0130 N.am    1  UNL1       -0.1777
     12 O           9.3170    0.7690   21.0220 O.2     1  UNL1       -0.2726
     13 C           6.7770    0.0690   19.9500 C.ar    1  UNL1        0.0885
     14 C           9.2110   -1.0600   22.5840 C.3     1  UNL1        0.1135
     15 C           7.2300   -0.0400   18.6360 C.ar    1  UNL1        0.1151
     16 C          12.4060    0.4010   24.0340 C.ar    1  UNL1        0.0020
     17 C          11.6470   -1.3550   22.0280 C.ar    1  UNL1        0.0259
     18 C           5.4910    1.2270   17.8580 C.ar    1  UNL1        0.0987
@<TRIPOS>BOND
     1     4     2    1
     2     6     4   ar
     3     7     5    1
     4     8     1   ar
     5     9     5   ar
     6    11    10   am
     7    12    10    2
     8    13    11    1
     9    13     5   ar
    10    14    10    1
    11    14     8    1
    12    15    13   ar
    13    15     3   ar
    14    16     6   ar
    15    16     1   ar
    16    17     8   ar
    17    17     4   ar
    18    18     9   ar
    19    18     3   ar
