@<TRIPOS>MOLECULE
*****
 16 16 0 0 0
SMALL
GASTEIGER

@<TRIPOS>ATOM
      1 O           9.7080    0.9780   21.0770 O.2     1  UNL1       -0.2730
      2 C           9.1890   -0.0170   21.5650 C.2     1  UNL1        0.2456
      3 C           9.7440   -0.6700   22.8080 C.3     1  UNL1        0.0872
      4 C          10.9270   -1.6020   22.5230 C.3     1  UNL1        0.0091
      5 C          11.0360   -2.6510   23.6270 C.3     1  UNL1        0.0005
      6 C          12.2460   -0.7940   22.3180 C.3     1  UNL1        0.0005
      7 C          13.4320   -1.6580   21.9170 C.3     1  UNL1        0.0000
      8 C          12.5990    0.0620   23.5230 C.3     1  UNL1        0.0000
      9 N           8.0690   -0.5870   21.0830 N.am    1  UNL1       -0.1780
     10 C           7.2360   -0.0400   20.0750 C.ar    1  UNL1        0.0885
     11 C           6.0150    0.5810   20.4300 C.ar    1  UNL1       -0.0034
     12 C           5.6190    0.8060   21.8670 C.3     1  UNL1        0.0325
     13 C           5.2070    1.0410   19.3960 C.ar    1  UNL1        0.0177
     14 C           5.6350    0.9160   18.0890 C.ar    1  UNL1        0.0987
     15 N           6.7990    0.3560   17.7390 N.ar    1  UNL1       -0.2410
     16 C           7.5750   -0.1160   18.7220 C.ar    1  UNL1        0.1151
@<TRIPOS>BOND
     1     2     1    2
     2     3     2    1
     3     4     3    1
     4     4     5    1
     5     6     4    1
     6     6     7    1
     7     8     6    1
     8     9     2   am
     9    10     9    1
    10    11    10   ar
    11    12    11    1
    12    13    11   ar
    13    14    13   ar
    14    15    14   ar
    15    16    15   ar
    16    16    10   ar
