@<TRIPOS>MOLECULE
*****
 14 15 0 0 0
SMALL
GASTEIGER

@<TRIPOS>ATOM
      1 C          23.6370   -8.0850    5.7580 C.ar    1  UNL1        0.0574
      2 C          24.3870   -6.8070    6.1260 C.ar    1  UNL1        0.0114
      3 C          25.7580   -6.7870    6.1360 C.ar    1  UNL1        0.0006
      4 C          26.4950   -7.9840    5.7930 C.ar    1  UNL1       -0.0029
      5 C          25.7680   -9.2390    5.4350 C.ar    1  UNL1       -0.0053
      6 C          26.5680  -10.4870    5.0900 C.3     1  UNL1        0.0993
      7 C          27.9020  -10.5890    6.9420 C.3     1  UNL1        0.1049
      8 C          28.3680  -11.3720    8.1570 C.3     1  UNL1        0.1595
      9 C          27.4810  -13.3370    7.1170 C.3     1  UNL1        0.1595
     10 C          27.2730  -12.5050    5.8630 C.3     1  UNL1        0.1049
     11 C          24.3580   -9.2600    5.4230 C.ar    1  UNL1        0.0085
     12 N          26.9160  -11.1740    6.1930 N.3     1  UNL1       -0.2646
     13 O          28.3360  -12.7930    8.0340 O.3     1  UNL1       -0.3508
     14 CL         21.8520   -8.0630    5.7710 Cl      1  UNL1       -0.0823
@<TRIPOS>BOND
     1     2     1   ar
     2     3     2   ar
     3     4     3   ar
     4     5     4   ar
     5     6     5    1
     6     8     7    1
     7    10     9    1
     8    11     5   ar
     9    11     1   ar
    10    12     6    1
    11    12    10    1
    12    12     7    1
    13    13     9    1
    14    13     8    1
    15    14     1    1
