@<TRIPOS>MOLECULE
*****
 26 28 0 0 0
SMALL
GASTEIGER

@<TRIPOS>ATOM
      1 O           6.4300    1.1030   16.7330 O.2     1  UNL1       -0.2652
      2 C           5.8400    0.8250   17.7810 C.ar    1  UNL1        0.2794
      3 C           6.2530   -0.1960   18.6720 C.ar    1  UNL1        0.0671
      4 N           4.7810    1.5840   18.1960 N.ar    1  UNL1       -0.2079
      5 C           4.1660    1.4650   19.4420 C.ar    1  UNL1        0.0844
      6 C           4.6230    0.4920   20.3640 C.ar    1  UNL1        0.0184
      7 C           4.0380    0.4410   21.6500 C.ar    1  UNL1       -0.0202
      8 C           4.5490   -0.4530   22.7500 C.3     1  UNL1        0.0311
      9 C           2.9910    1.3130   21.9460 C.ar    1  UNL1       -0.0042
     10 C           2.5310    2.2310   21.0240 C.ar    1  UNL1        0.0012
     11 C           3.1180    2.3200   19.7760 C.ar    1  UNL1        0.0192
     12 C           5.7080   -0.4140   19.8990 C.ar    1  UNL1        0.0610
     13 C           6.1790   -1.6290   20.6370 C.2     1  UNL1        0.2651
     14 O           5.5760   -2.6990   20.5650 O.2     1  UNL1       -0.2684
     15 N           7.2890   -1.4930   21.3600 N.am    1  UNL1       -0.1977
     16 C           7.7400   -2.5270   22.2810 C.3     1  UNL1        0.1626
     17 C           9.2320   -2.5110   22.4300 C.3     1  UNL1        0.2289
     18 O           9.6060   -1.1870   22.8400 O.3     1  UNL1       -0.4705
     19 C          10.9300   -0.8310   22.8130 C.ar    1  UNL1        0.1723
     20 C          11.1890    0.5010   23.1830 C.ar    1  UNL1        0.1724
     21 O          10.0830    1.2330   23.5210 O.3     1  UNL1       -0.4684
     22 C          10.2840    2.5090   24.1280 C.3     1  UNL1        0.2526
     23 C          11.9800   -1.6700   22.4640 C.ar    1  UNL1        0.0400
     24 C          13.2780   -1.1820   22.4860 C.ar    1  UNL1        0.0033
     25 C          13.5330    0.1230   22.8590 C.ar    1  UNL1        0.0033
     26 C          12.4960    0.9730   23.2020 C.ar    1  UNL1        0.0400
@<TRIPOS>BOND
     1     2     1    2
     2     3     2   ar
     3     4     2   ar
     4     5     4   ar
     5     6     5   ar
     6     7     6   ar
     7     8     7    1
     8     9     7   ar
     9    10     9   ar
    10    11    10   ar
    11    11     5   ar
    12    12     6   ar
    13    12     3   ar
    14    13    12    1
    15    14    13    2
    16    15    13   am
    17    16    15    1
    18    17    16    1
    19    18    17    1
    20    19    18    1
    21    20    19   ar
    22    21    20    1
    23    22    21    1
    24    23    19   ar
    25    24    23   ar
    26    25    24   ar
    27    26    25   ar
    28    26    20   ar
