@<TRIPOS>MOLECULE
*****
 17 18 0 0 0
SMALL
GASTEIGER

@<TRIPOS>ATOM
      1 C           5.3850    1.3130   17.9440 C.ar    1  UNL1        0.0990
      2 N           9.1390   -1.0430   22.3880 N.am    1  UNL1       -0.1607
      3 N           6.4670    0.5950   17.6120 N.ar    1  UNL1       -0.2410
      4 C          13.0100    0.0220   23.4850 C.ar    1  UNL1        0.0115
      5 C          11.5070   -1.3460   22.1810 C.ar    1  UNL1        0.0280
      6 C          12.7750   -0.8860   22.4730 C.ar    1  UNL1        0.0590
      7 C           4.8640    1.3570   19.2230 C.ar    1  UNL1        0.0220
      8 C          11.9420    0.4400   24.2670 C.ar    1  UNL1        0.0022
      9 N           7.4090   -0.7340   20.9160 N.am    1  UNL1       -0.1591
     10 C           6.6340   -0.1050   19.9090 C.ar    1  UNL1        0.0941
     11 O           9.1490    0.7400   20.9650 O.2     1  UNL1       -0.2484
     12 C           8.6070   -0.2730   21.3910 C.2     1  UNL1        0.3478
     13 C           5.4960    0.6300   20.2190 C.ar    1  UNL1        0.0198
     14 C          10.4340   -0.8620   22.9230 C.ar    1  UNL1        0.0758
     15 C           7.0680   -0.1000   18.5840 C.ar    1  UNL1        0.1154
     16 C          10.6570   -0.0070   23.9960 C.ar    1  UNL1        0.0167
     17 CL         14.1170   -1.4820   21.5400 Cl      1  UNL1       -0.0822
@<TRIPOS>BOND
     1     3     1   ar
     2     6     5   ar
     3     6     4   ar
     4     7     1   ar
     5     8     4   ar
     6    10     9    1
     7    12    11    2
     8    12     9   am
     9    12     2   am
    10    13     7   ar
    11    13    10   ar
    12    14     2    1
    13    14     5   ar
    14    15    10   ar
    15    15     3   ar
    16    16    14   ar
    17    16     8   ar
    18    17     6    1
