@<TRIPOS>MOLECULE
*****
 16 17 0 0 0
SMALL
GASTEIGER

@<TRIPOS>ATOM
      1 N           7.2620   -4.8140   21.5990 N.am    1  UNL1       -0.2027
      2 C           7.6060   -2.4880   22.4060 C.3     1  UNL1        0.0283
      3 O           5.7240   -5.2000   19.9980 O.2     1  UNL1       -0.2733
      4 C           7.5350   -3.9660   22.7690 C.3     1  UNL1        0.1175
      5 C           7.6970   -4.2590   27.9990 C.ar    1  UNL1       -0.0000
      6 C           8.6660   -4.0320   27.0120 C.ar    1  UNL1       -0.0000
      7 C           8.3180   -4.0090   25.6940 C.ar    1  UNL1       -0.0003
      8 C           6.9750   -4.2180   25.2740 C.ar    1  UNL1       -0.0024
      9 C           6.6050   -4.4810   20.4760 C.2     1  UNL1        0.2421
     10 C           6.9750   -3.3050   19.5820 C.3     1  UNL1        0.0964
     11 C           6.5440   -4.2140   23.8990 C.ar    1  UNL1       -0.0026
     12 C           5.2160   -4.4280   23.6170 C.ar    1  UNL1       -0.0026
     13 C           4.2670   -4.6450   24.6330 C.ar    1  UNL1       -0.0003
     14 C           4.6510   -4.6540   25.9320 C.ar    1  UNL1       -0.0000
     15 C           6.0010   -4.4430   26.2940 C.ar    1  UNL1       -0.0003
     16 C           6.4000   -4.4570   27.6520 C.ar    1  UNL1       -0.0000
@<TRIPOS>BOND
     1     4     1    1
     2     4     2    1
     3     6     5   ar
     4     7     6   ar
     5     8     7   ar
     6     9     3    2
     7     9     1   am
     8    10     9    1
     9    11     8   ar
    10    11     4    1
    11    12    11   ar
    12    13    12   ar
    13    14    13   ar
    14    15    14   ar
    15    15     8   ar
    16    16    15   ar
    17    16     5   ar
