@<TRIPOS>MOLECULE
*****
 27 31 0 0 0
SMALL
GASTEIGER

@<TRIPOS>ATOM
      1 O           9.1290    1.3480   21.1030 O.2     1  UNL1       -0.2719
      2 C           8.7290    0.3070   21.5890 C.2     1  UNL1        0.2583
      3 C           9.2430   -0.3550   22.8870 C.3     1  UNL1        0.1741
      4 C           8.6400    0.3900   24.0960 C.3     1  UNL1        0.0806
      5 C           9.4620    1.6020   24.4800 C.3     1  UNL1        0.2080
      6 O          10.8120    1.2370   24.7820 O.3     1  UNL1       -0.4756
      7 C          10.7650   -0.2780   22.8790 C.ar    1  UNL1        0.0388
      8 C          11.4440    0.5670   23.7660 C.ar    1  UNL1        0.1366
      9 C          12.8120    0.7550   23.6930 C.ar    1  UNL1        0.0375
     10 C          13.5400    0.0590   22.7490 C.ar    1  UNL1        0.0145
     11 C          11.5190   -0.9910   21.9480 C.ar    1  UNL1        0.0122
     12 C          12.8930   -0.8260   21.9160 C.ar    1  UNL1        0.0576
     13 CL         13.8400   -1.8340   20.8600 Cl      1  UNL1       -0.0823
     14 N           7.7830   -0.5560   21.0540 N.am    1  UNL1       -0.1880
     15 C           7.7370   -1.7650   21.7580 C.2     1  UNL1        0.3335
     16 O           6.9490   -2.6750   21.5510 O.2     1  UNL1       -0.2500
     17 N           8.6570   -1.6840   22.7480 N.am    1  UNL1       -0.1779
     18 C           6.8870   -0.1900   19.9880 C.ar    1  UNL1        0.0813
     19 C           5.7140    0.5590   20.2960 C.ar    1  UNL1        0.0172
     20 C           5.1780    0.7070   21.6010 C.ar    1  UNL1        0.0013
     21 C           4.0240    1.4070   21.8130 C.ar    1  UNL1        0.0000
     22 C           3.3520    1.9970   20.7540 C.ar    1  UNL1        0.0001
     23 C           3.8370    1.9030   19.4800 C.ar    1  UNL1        0.0016
     24 C           5.0270    1.1810   19.2160 C.ar    1  UNL1        0.0204
     25 C           5.5680    1.0240   17.9140 C.ar    1  UNL1        0.0989
     26 N           6.6650    0.3320   17.6390 N.ar    1  UNL1       -0.2410
     27 C           7.2970   -0.2580   18.6620 C.ar    1  UNL1        0.1142
@<TRIPOS>BOND
     1     2     1    2
     2     3     2    1
     3     3     4    1
     4     5     4    1
     5     6     5    1
     6     7     3    1
     7     8     7   ar
     8     8     6    1
     9     9     8   ar
    10    10     9   ar
    11    11     7   ar
    12    12    11   ar
    13    12    10   ar
    14    13    12    1
    15    14     2   am
    16    15    14   am
    17    16    15    2
    18    17    15   am
    19    17     3    1
    20    18    14    1
    21    19    18   ar
    22    20    19   ar
    23    21    20   ar
    24    22    21   ar
    25    23    22   ar
    26    24    23   ar
    27    24    19   ar
    28    25    24   ar
    29    26    25   ar
    30    27    26   ar
    31    27    18   ar
