@<TRIPOS>MOLECULE
*****
 24 26 0 0 0
SMALL
GASTEIGER

@<TRIPOS>ATOM
      1 CL         13.8840   -1.6020   21.3570 Cl      1  UNL1       -0.0814
      2 C          12.5660   -0.9150   22.2510 C.ar    1  UNL1        0.0680
      3 C          12.7780    0.1240   23.1480 C.ar    1  UNL1        0.0682
      4 CL         14.3780    0.6670   23.5270 Cl      1  UNL1       -0.0814
      5 C          11.7010    0.7510   23.7420 C.ar    1  UNL1        0.0120
      6 C          10.4170    0.3310   23.4530 C.ar    1  UNL1       -0.0005
      7 C          11.2810   -1.3470   21.9820 C.ar    1  UNL1        0.0108
      8 C          10.1900   -0.7200   22.5750 C.ar    1  UNL1        0.0143
      9 C           8.7880   -1.1630   22.2330 C.3     1  UNL1        0.2153
     10 O           8.0210   -1.6080   23.3480 O.3     1  UNL1       -0.3400
     11 C           7.3500   -0.5490   24.0420 C.3     1  UNL1        0.1751
     12 C           8.1010   -0.1860   21.2750 C.2     1  UNL1        0.2771
     13 O           8.6000    0.9150   21.0360 O.2     1  UNL1       -0.2700
     14 N           6.9900   -0.6570   20.6710 N.am    1  UNL1       -0.1753
     15 C           6.2950   -0.0770   19.6030 C.ar    1  UNL1        0.0925
     16 C           5.2200    0.8160   19.8920 C.ar    1  UNL1        0.0184
     17 C           4.7490    1.0870   21.2020 C.ar    1  UNL1        0.0014
     18 C           3.7410    1.9820   21.4140 C.ar    1  UNL1        0.0000
     19 C           3.1490    2.6460   20.3490 C.ar    1  UNL1        0.0001
     20 C           3.5650    2.4170   19.0700 C.ar    1  UNL1        0.0016
     21 C           4.6140    1.5030   18.8060 C.ar    1  UNL1        0.0204
     22 C           5.1220    1.2560   17.5100 C.ar    1  UNL1        0.0989
     23 N           6.1170    0.4230   17.2430 N.ar    1  UNL1       -0.2410
     24 C           6.6740   -0.2260   18.2720 C.ar    1  UNL1        0.1154
@<TRIPOS>BOND
     1     2     1    1
     2     3     2   ar
     3     4     3    1
     4     5     3   ar
     5     6     5   ar
     6     7     2   ar
     7     8     6   ar
     8     8     7   ar
     9     9     8    1
    10     9    10    1
    11    11    10    1
    12    12     9    1
    13    13    12    2
    14    14    12   am
    15    15    14    1
    16    16    15   ar
    17    17    16   ar
    18    18    17   ar
    19    19    18   ar
    20    20    19   ar
    21    21    20   ar
    22    21    16   ar
    23    22    21   ar
    24    23    22   ar
    25    24    23   ar
    26    24    15   ar
