@<TRIPOS>MOLECULE
*****
 26 30 0 0 0
SMALL
GASTEIGER

@<TRIPOS>ATOM
      1 O           9.2280    1.3590   21.2130 O.2     1  UNL1       -0.2741
      2 C           8.7130    0.3580   21.6730 C.2     1  UNL1        0.2360
      3 C           9.1870   -0.4120   22.9070 C.3     1  UNL1        0.1327
      4 C          10.6850   -0.5210   23.0090 C.ar    1  UNL1        0.0238
      5 C          11.6060   -1.1560   22.1840 C.ar    1  UNL1        0.0107
      6 C          12.9550   -0.9790   22.4460 C.ar    1  UNL1        0.0576
      7 CL         14.1250   -1.6900   21.3640 Cl      1  UNL1       -0.0823
      8 C          13.3990   -0.2210   23.5140 C.ar    1  UNL1        0.0145
      9 C          12.4750    0.3880   24.3480 C.ar    1  UNL1        0.0374
     10 C          11.1240    0.2380   24.0780 C.ar    1  UNL1        0.1351
     11 O          10.0950    0.7970   24.8070 O.3     1  UNL1       -0.4749
     12 C           8.8480    0.3560   24.2010 C.3     1  UNL1        0.2180
     13 C           8.5020   -1.7900   22.7340 C.3     1  UNL1        0.0384
     14 C           7.2410   -1.4760   21.9350 C.3     1  UNL1        0.0992
     15 N           7.5930   -0.2520   21.1910 N.am    1  UNL1       -0.2568
     16 C           6.7920    0.2300   20.1040 C.ar    1  UNL1        0.0731
     17 C           7.1070   -0.0670   18.7810 C.ar    1  UNL1        0.1137
     18 N           6.4290    0.3610   17.7080 N.ar    1  UNL1       -0.2410
     19 C           5.3690    1.1250   17.9210 C.ar    1  UNL1        0.0989
     20 C           5.6520    1.0640   20.3380 C.ar    1  UNL1        0.0190
     21 C           5.2360    1.4810   21.6340 C.ar    1  UNL1        0.0310
     22 C           4.1550    2.2940   21.7460 C.ar    1  UNL1        0.1402
     23 F           3.7480    2.6640   22.9940 F       1  UNL1       -0.2042
     24 C           4.9190    1.5200   19.2070 C.ar    1  UNL1        0.0205
     25 C           3.8010    2.3680   19.4100 C.ar    1  UNL1        0.0039
     26 C           3.4330    2.7490   20.6670 C.ar    1  UNL1        0.0297
@<TRIPOS>BOND
     1     2     1    2
     2     3     2    1
     3     4     3    1
     4     5     4   ar
     5     6     5   ar
     6     7     6    1
     7     8     6   ar
     8     9     8   ar
     9    10     4   ar
    10    10     9   ar
    11    11    10    1
    12    12    11    1
    13     3    12    1
    14    13     3    1
    15    14    13    1
    16    15     2   am
    17    15    14    1
    18    16    15    1
    19    17    16   ar
    20    18    17   ar
    21    19    18   ar
    22    20    16   ar
    23    21    20   ar
    24    22    21   ar
    25    23    22    1
    26    24    19   ar
    27    24    20   ar
    28    25    24   ar
    29    26    25   ar
    30    26    22   ar
