@<TRIPOS>MOLECULE
*****
 20 22 0 0 0
SMALL
GASTEIGER

@<TRIPOS>ATOM
      1 N           7.2510   -2.8590   21.2800 N.3     1  UNL1       -0.2484
      2 C          12.4930   -0.8220   22.4140 C.3     1  UNL1        0.0000
      3 C           7.3100   -5.0070   24.2800 C.3     1  UNL1        0.0014
      4 C           8.3930   -1.9670   21.5480 C.3     1  UNL1        0.0743
      5 C          12.6270    0.2120   23.3340 C.3     1  UNL1        0.0000
      6 C          11.2720   -1.4810   22.3360 C.3     1  UNL1        0.0000
      7 C           6.7590   -3.2010   20.0680 C.3     1  UNL1        0.2128
      8 C          10.2090   -1.1410   23.1660 C.3     1  UNL1        0.0013
      9 C          10.3830   -0.1260   24.0970 C.3     1  UNL1        0.0000
     10 C           7.5320   -3.8470   23.5370 C.3     1  UNL1        0.0161
     11 C           9.3610   -4.6720   25.4620 C.3     1  UNL1        0.0000
     12 C           7.5540   -2.7850   18.8560 C.3     1  UNL1        0.0542
     13 C           6.5650   -3.3300   22.5050 C.3     1  UNL1        0.0743
     14 C           8.2200   -5.4080   25.2440 C.3     1  UNL1        0.0000
     15 C           9.5940   -3.5210   24.7260 C.3     1  UNL1        0.0001
     16 C          13.6670   -1.2740   21.5820 C.3     1  UNL1        0.0000
     17 O           5.6960   -3.7690   19.9480 O.3     1  UNL1       -0.2050
     18 C           8.8450   -1.8000   23.0060 C.3     1  UNL1        0.0161
     19 C          11.5840    0.5530   24.1780 C.3     1  UNL1        0.0000
     20 C           8.6770   -3.0920   23.7680 C.3     1  UNL1        0.0027
@<TRIPOS>BOND
     1     4     1    1
     2     5     2    1
     3     6     2    1
     4     7     1    1
     5     8     6    1
     6     9     8    1
     7    10     3    1
     8    12     7    1
     9    13     1    1
    10    13    10    1
    11    14    11    1
    12    14     3    1
    13    15    11    1
    14     2    16    1
    15    17     7    1
    16    18     4    1
    17    18     8    1
    18    19     9    1
    19    19     5    1
    20    20    18    1
    21    20    15    1
    22    20    10    1
