@<TRIPOS>MOLECULE
*****
 22 25 0 0 0
SMALL
GASTEIGER

@<TRIPOS>ATOM
      1 N           5.6140    0.5500   19.2770 N.ar    1  UNL1       -0.2815
      2 N           7.2580   -0.1310   20.8290 N.am    1  UNL1       -0.1430
      3 N           6.7810    0.4840   17.4190 N.ar    1  UNL1       -0.1242
      4 C           4.8730    2.0630   21.1720 C.3     1  UNL1        0.0246
      5 C          12.8900   -0.0140   23.4470 C.ar    1  UNL1        0.0145
      6 O           9.2270    0.8910   20.9820 O.2     1  UNL1       -0.2726
      7 C           6.9050    0.3170   19.5900 C.ar    1  UNL1        0.2445
      8 C          11.9260    0.5830   24.2390 C.ar    1  UNL1        0.0374
      9 C           8.7130   -0.7510   22.6790 C.3     1  UNL1        0.1075
     10 C           7.8220   -0.2210   23.8240 C.3     1  UNL1        0.0610
     11 C           8.3430    1.1080   24.3040 C.3     1  UNL1        0.2062
     12 C           4.5780    0.9260   20.2570 C.3     1  UNL1        0.0898
     13 C          10.1850   -0.5530   22.9860 C.ar    1  UNL1        0.0212
     14 C           5.5910    0.6470   17.9180 C.ar    1  UNL1        0.2036
     15 C           3.8590    2.2180   20.0840 C.3     1  UNL1        0.0246
     16 C          11.1720   -1.1700   22.2190 C.ar    1  UNL1        0.0106
     17 C          12.5010   -0.8840   22.4540 C.ar    1  UNL1        0.0576
     18 N           7.6360    0.2750   18.4870 N.ar    1  UNL1       -0.1107
     19 O           9.6940    1.0010   24.8000 O.3     1  UNL1       -0.4757
     20 C           8.4880   -0.0100   21.3590 C.2     1  UNL1        0.2519
     21 C          10.5840    0.3240   23.9980 C.ar    1  UNL1        0.1350
     22 CL         13.7150   -1.6470   21.4650 Cl      1  UNL1       -0.0823
@<TRIPOS>BOND
     1     7     2    1
     2     7     1   ar
     3     8     5   ar
     4    10     9    1
     5    11    10    1
     6    12     4    1
     7    12     1    1
     8    13     9    1
     9    14     3   ar
    10    14     1   ar
    11    15    12    1
    12    15     4    1
    13    16    13   ar
    14    17    16   ar
    15    17     5   ar
    16    18     7   ar
    17    18     3   ar
    18    19    11    1
    19    20     6    2
    20    20     2   am
    21     9    20    1
    22    21    19    1
    23    21    13   ar
    24    21     8   ar
    25    22    17    1
