@<TRIPOS>MOLECULE
*****
 23 25 0 0 0
SMALL
GASTEIGER

@<TRIPOS>ATOM
      1 N           6.6010    0.4720   17.5540 N.ar    1  UNL1       -0.2410
      2 N          12.0900    4.6580   22.9430 N.am    1  UNL1       -0.1652
      3 C           5.7200    0.5630   20.2230 C.ar    1  UNL1       -0.0034
      4 C          13.6600    0.3350   22.5470 C.ar    1  UNL1        0.0370
      5 O          12.8860    2.4120   23.5430 O.3     1  UNL1       -0.4583
      6 C          10.9960   -0.5190   22.5740 C.ar    1  UNL1       -0.0100
      7 C           4.9970    1.1630   19.1960 C.ar    1  UNL1        0.0177
      8 C          11.3530    0.6910   23.1600 C.ar    1  UNL1        0.0332
      9 C           8.8100   -0.0730   21.4100 C.2     1  UNL1        0.2500
     10 C           6.9110   -0.1020   19.8700 C.ar    1  UNL1        0.0885
     11 C           7.2970   -0.1220   18.5300 C.ar    1  UNL1        0.1151
     12 C          12.6440    3.3690   22.4940 C.3     1  UNL1        0.2718
     13 C          13.3110   -0.8860   21.9960 C.ar    1  UNL1        0.0028
     14 C          11.9900   -1.3070   22.0100 C.ar    1  UNL1       -0.0036
     15 C          12.6700    1.1230   23.1130 C.ar    1  UNL1        0.1403
     16 C          13.9730    4.0990   22.2760 C.3     1  UNL1        0.1539
     17 C           5.2670    0.6890   21.6540 C.3     1  UNL1        0.0325
     18 N           7.7210   -0.6670   20.8800 N.am    1  UNL1       -0.1777
     19 O           9.1890    1.0480   21.0860 O.2     1  UNL1       -0.2726
     20 O          13.3760    6.5660   22.4610 O.2     1  UNL1       -0.2730
     21 C           9.5370   -0.9020   22.4520 C.3     1  UNL1        0.1136
     22 C           5.4690    1.0970   17.9000 C.ar    1  UNL1        0.0987
     23 C          13.1690    5.3590   22.5490 C.2     1  UNL1        0.2499
@<TRIPOS>BOND
     1     7     3   ar
     2     8     6   ar
     3    10     3   ar
     4    11    10   ar
     5    11     1   ar
     6    12     5    1
     7    12     2    1
     8    13     4   ar
     9    14    13   ar
    10    14     6   ar
    11    15     8   ar
    12    15     5    1
    13    15     4   ar
    14    16    12    1
    15    17     3    1
    16    18    10    1
    17    18     9   am
    18    19     9    2
    19    21     9    1
    20    21     6    1
    21    22     7   ar
    22    22     1   ar
    23    23    16    1
    24    23     2   am
    25    23    20    2
