@<TRIPOS>MOLECULE
*****
 35 38 0 0 0
SMALL
GASTEIGER

@<TRIPOS>ATOM
      1 CL         13.6890   -1.2960   21.5500 Cl      1  UNL1       -0.0814
      2 C          12.4210   -0.6200   22.5260 C.ar    1  UNL1        0.0679
      3 C          12.7150    0.2210   23.5940 C.ar    1  UNL1        0.0682
      4 CL         14.3420    0.7260   23.9200 Cl      1  UNL1       -0.0814
      5 C          11.7010    0.6820   24.4060 C.ar    1  UNL1        0.0120
      6 C          10.3930    0.3280   24.1390 C.ar    1  UNL1       -0.0013
      7 C          11.1080   -0.9630   22.2460 C.ar    1  UNL1        0.0100
      8 C          10.0760   -0.4830   23.0530 C.ar    1  UNL1        0.0047
      9 C           8.6100   -0.8130   22.7330 C.3     1  UNL1        0.1674
     10 C           8.5000   -2.2950   22.3570 C.3     1  UNL1        0.0357
     11 N           7.7730   -0.5740   23.9190 N.am    1  UNL1       -0.1936
     12 C           7.3440    0.5980   24.4190 C.2     1  UNL1        0.2706
     13 O           7.3480    1.6540   23.7900 O.2     1  UNL1       -0.2706
     14 C           6.9180    0.5890   25.8830 C.3     1  UNL1        0.2084
     15 O           5.5390    0.1870   25.9800 O.3     1  UNL1       -0.3441
     16 C           5.0830    0.1900   27.3460 C.3     1  UNL1        0.1600
     17 C           5.2320    1.5690   27.9520 C.3     1  UNL1        0.1046
     18 C           7.1040    1.9670   26.5020 C.3     1  UNL1        0.1116
     19 N           6.6470    1.9760   27.9020 N.3     1  UNL1       -0.2694
     20 C           7.0820    3.1440   28.6950 C.3     1  UNL1        0.0577
     21 C           6.5370    4.4670   28.1780 C.3     1  UNL1        0.0173
     22 C           6.8110    2.9600   30.1790 C.3     1  UNL1        0.0173
     23 C           8.1480    0.1290   21.5740 C.2     1  UNL1        0.2673
     24 O           8.4230    1.3230   21.5780 O.2     1  UNL1       -0.2708
     25 N           7.5040   -0.4650   20.5490 N.am    1  UNL1       -0.1760
     26 C           6.5370   -0.0390   19.6130 C.ar    1  UNL1        0.0925
     27 C           5.4790    0.8620   19.9710 C.ar    1  UNL1        0.0184
     28 C           5.0370    1.0750   21.3020 C.ar    1  UNL1        0.0014
     29 C           3.9410    1.8470   21.5670 C.ar    1  UNL1        0.0000
     30 C           3.2360    2.4530   20.5400 C.ar    1  UNL1        0.0001
     31 C           3.6240    2.2890   19.2420 C.ar    1  UNL1        0.0016
     32 C           4.7470    1.4860   18.9200 C.ar    1  UNL1        0.0204
     33 C           5.1250    1.1950   17.5930 C.ar    1  UNL1        0.0989
     34 N           6.0890    0.3540   17.2590 N.ar    1  UNL1       -0.2410
     35 C           6.7540   -0.2460   18.2520 C.ar    1  UNL1        0.1154
@<TRIPOS>BOND
     1     2     1    1
     2     3     2   ar
     3     4     3    1
     4     5     3   ar
     5     6     5   ar
     6     7     2   ar
     7     8     6   ar
     8     8     7   ar
     9     9     8    1
    10     9    10    1
    11    11     9    1
    12    12    11   am
    13    13    12    2
    14    14    12    1
    15    15    14    1
    16    16    15    1
    17    17    16    1
    18    18    14    1
    19    19    17    1
    20    19    18    1
    21    20    19    1
    22    20    21    1
    23    22    20    1
    24    23     9    1
    25    24    23    2
    26    25    23   am
    27    26    25    1
    28    27    26   ar
    29    28    27   ar
    30    29    28   ar
    31    30    29   ar
    32    31    30   ar
    33    32    31   ar
    34    32    27   ar
    35    33    32   ar
    36    34    33   ar
    37    35    34   ar
    38    35    26   ar
