@<TRIPOS>MOLECULE
*****
 26 29 0 0 0
SMALL
GASTEIGER

@<TRIPOS>ATOM
      1 O           5.3160   -2.6490   20.8710 O.2     1  UNL1       -0.2698
      2 C           5.8830   -1.5690   20.8600 C.2     1  UNL1        0.2509
      3 C           5.5790   -0.5680   19.7840 C.ar    1  UNL1        0.0727
      4 C           4.6190    0.4660   19.9870 C.ar    1  UNL1        0.0074
      5 C           3.9270    0.6880   21.2080 C.ar    1  UNL1        0.0002
      6 C           2.9870    1.6720   21.3160 C.ar    1  UNL1        0.0000
      7 C           2.6910    2.4870   20.2340 C.ar    1  UNL1        0.0000
      8 C           3.3490    2.3360   19.0480 C.ar    1  UNL1        0.0015
      9 C           4.3330    1.3260   18.8910 C.ar    1  UNL1        0.0193
     10 C           5.0480    1.1170   17.6840 C.ar    1  UNL1        0.0988
     11 N           5.9550    0.1580   17.5060 N.ar    1  UNL1       -0.2422
     12 C           6.1950   -0.6650   18.5360 C.ar    1  UNL1        0.1034
     13 N           6.7680   -1.2100   21.8140 N.am    1  UNL1       -0.2659
     14 C           7.3230   -2.1270   22.8120 C.3     1  UNL1        0.1160
     15 C           8.8360   -2.1980   22.6690 C.3     1  UNL1        0.1197
     16 C           7.3040    0.1440   21.9300 C.3     1  UNL1        0.1799
     17 C           8.8060    0.2080   21.9800 C.2     1  UNL1        0.2497
     18 O           9.3860    1.1750   21.5000 O.2     1  UNL1       -0.2727
     19 N           9.4510   -0.8650   22.5270 N.am    1  UNL1       -0.2555
     20 C          10.8260   -0.8000   22.8750 C.ar    1  UNL1        0.0548
     21 C          11.7250   -1.5800   22.1590 C.ar    1  UNL1        0.0263
     22 C          13.0740   -1.4060   22.3710 C.ar    1  UNL1        0.0589
     23 CL         14.1930   -2.2540   21.3500 Cl      1  UNL1       -0.0822
     24 C          11.2850    0.1020   23.8350 C.ar    1  UNL1        0.0150
     25 C          12.6490    0.2440   24.0440 C.ar    1  UNL1        0.0021
     26 C          13.5550   -0.5080   23.3080 C.ar    1  UNL1        0.0115
@<TRIPOS>BOND
     1     2     1    2
     2     3     2    1
     3     4     3   ar
     4     5     4   ar
     5     6     5   ar
     6     7     6   ar
     7     8     7   ar
     8     9     8   ar
     9     9     4   ar
    10    10     9   ar
    11    11    10   ar
    12    12    11   ar
    13    12     3   ar
    14    13     2   am
    15    14    13    1
    16    15    14    1
    17    16    13    1
    18    17    16    1
    19    18    17    2
    20    19    17   am
    21    19    15    1
    22    20    19    1
    23    21    20   ar
    24    22    21   ar
    25    23    22    1
    26    24    20   ar
    27    25    24   ar
    28    26    25   ar
    29    26    22   ar
