@<TRIPOS>MOLECULE
*****
 24 26 0 0 0
SMALL
GASTEIGER

@<TRIPOS>ATOM
      1 BR          5.1760    1.0800   17.7330 Br      1  UNL1       -0.0490
      2 C           5.7450   -0.0220   19.1620 C.ar    1  UNL1        0.0341
      3 C           6.0580   -1.3340   18.9040 C.ar    1  UNL1        0.0066
      4 C           6.4720   -2.1460   19.9510 C.ar    1  UNL1        0.0305
      5 C           6.9400   -3.5690   19.9480 C.3     1  UNL1        0.2513
      6 O           5.8910   -4.4380   19.5690 O.3     1  UNL1       -0.2083
      7 C           7.1950   -3.8210   21.4260 C.2     1  UNL1        0.2645
      8 O           7.4510   -4.8900   21.9480 O.2     1  UNL1       -0.2714
      9 C           5.8230    0.5080   20.4310 C.ar    1  UNL1        0.0037
     10 C           6.2140   -0.3000   21.4960 C.ar    1  UNL1       -0.0079
     11 C           6.1960    0.2740   22.8920 C.3     1  UNL1        0.0323
     12 C           6.5530   -1.6340   21.2270 C.ar    1  UNL1        0.0491
     13 N           7.1110   -2.6140   22.0730 N.am    1  UNL1       -0.2525
     14 C           7.5750   -2.4090   23.4410 C.3     1  UNL1        0.1249
     15 C           8.9410   -1.7690   23.5140 C.ar    1  UNL1        0.0012
     16 C           9.3490   -1.1360   24.6820 C.ar    1  UNL1        0.0374
     17 C          10.5670   -0.4840   24.7420 C.ar    1  UNL1        0.1721
     18 O          11.0190    0.2230   25.8230 O.3     1  UNL1       -0.4684
     19 C          10.2100    0.2240   27.0070 C.3     1  UNL1        0.2526
     20 C           9.7860   -1.7510   22.4110 C.ar    1  UNL1        0.0007
     21 C          11.0180   -1.1260   22.4550 C.ar    1  UNL1        0.0398
     22 C          11.4180   -0.4880   23.6230 C.ar    1  UNL1        0.1724
     23 O          12.6270    0.1270   23.8070 O.3     1  UNL1       -0.4684
     24 C          13.5690    0.0920   22.7360 C.3     1  UNL1        0.2526
@<TRIPOS>BOND
     1     2     1    1
     2     3     2   ar
     3     4     3   ar
     4     5     4    1
     5     5     6    1
     6     7     5    1
     7     8     7    2
     8     9     2   ar
     9    10     9   ar
    10    11    10    1
    11    12    10   ar
    12    12     4   ar
    13    13    12    1
    14    13     7   am
    15    14    13    1
    16    15    14    1
    17    16    15   ar
    18    17    16   ar
    19    18    17    1
    20    19    18    1
    21    20    15   ar
    22    21    20   ar
    23    22    17   ar
    24    22    21   ar
    25    23    22    1
    26    24    23    1
