@<TRIPOS>MOLECULE
*****
 26 29 0 0 0
SMALL
GASTEIGER

@<TRIPOS>ATOM
      1 O           5.5790   -2.6310   20.8940 O.2     1  UNL1       -0.2698
      2 C           6.1110   -1.5400   20.8520 C.2     1  UNL1        0.2509
      3 C           5.7030   -0.5490   19.8030 C.ar    1  UNL1        0.0727
      4 C           4.7990    0.5110   20.0930 C.ar    1  UNL1        0.0074
      5 C           4.1730    0.7070   21.3540 C.ar    1  UNL1        0.0002
      6 C           3.2860    1.7270   21.5480 C.ar    1  UNL1        0.0000
      7 C           2.9760    2.6020   20.5160 C.ar    1  UNL1        0.0000
      8 C           3.5590    2.4630   19.2860 C.ar    1  UNL1        0.0015
      9 C           4.4840    1.4170   19.0400 C.ar    1  UNL1        0.0193
     10 C           5.0890    1.1940   17.7770 C.ar    1  UNL1        0.0988
     11 N           5.9340    0.2020   17.5140 N.ar    1  UNL1       -0.2422
     12 C           6.2300   -0.6380   18.5170 C.ar    1  UNL1        0.1034
     13 N           7.0630   -1.1670   21.7300 N.am    1  UNL1       -0.2659
     14 C           7.6780   -2.0670   22.7150 C.3     1  UNL1        0.1160
     15 C           9.1940   -2.0690   22.5480 C.3     1  UNL1        0.1197
     16 C           7.5630    0.2010   21.8020 C.3     1  UNL1        0.1799
     17 C           9.0610    0.3120   21.7920 C.2     1  UNL1        0.2497
     18 O           9.5910    1.2970   21.2840 O.2     1  UNL1       -0.2727
     19 N           9.7570   -0.7200   22.3460 N.am    1  UNL1       -0.2555
     20 C          11.1270   -0.5770   22.7090 C.ar    1  UNL1        0.0548
     21 C          12.0730   -1.3740   22.0750 C.ar    1  UNL1        0.0263
     22 C          13.4100   -1.1110   22.2790 C.ar    1  UNL1        0.0589
     23 CL         14.5760   -1.8920   21.2560 Cl      1  UNL1       -0.0822
     24 C          11.5330    0.4160   23.6030 C.ar    1  UNL1        0.0150
     25 C          12.8860    0.6220   23.8330 C.ar    1  UNL1        0.0021
     26 C          13.8360   -0.1390   23.1660 C.ar    1  UNL1        0.0115
@<TRIPOS>BOND
     1     2     1    2
     2     3     2    1
     3     4     3   ar
     4     5     4   ar
     5     6     5   ar
     6     7     6   ar
     7     8     7   ar
     8     9     8   ar
     9     9     4   ar
    10    10     9   ar
    11    11    10   ar
    12    12    11   ar
    13    12     3   ar
    14    13     2   am
    15    14    13    1
    16    15    14    1
    17    16    13    1
    18    17    16    1
    19    18    17    2
    20    19    17   am
    21    19    15    1
    22    20    19    1
    23    21    20   ar
    24    22    21   ar
    25    23    22    1
    26    24    20   ar
    27    25    24   ar
    28    26    25   ar
    29    26    22   ar
