@<TRIPOS>MOLECULE
*****
 23 26 0 0 0
SMALL
GASTEIGER

@<TRIPOS>ATOM
      1 O           9.2320    1.4880   21.1550 O.2     1  UNL1       -0.2742
      2 C           8.8300    0.4070   21.5570 C.2     1  UNL1        0.2330
      3 C           9.4290   -0.4380   22.6770 C.3     1  UNL1        0.1010
      4 C          10.9350   -0.3090   22.8400 C.ar    1  UNL1       -0.0130
      5 C          11.4690    0.6000   23.7450 C.ar    1  UNL1       -0.0038
      6 C          12.8400    0.8000   23.8260 C.ar    1  UNL1        0.0006
      7 C          13.6990    0.0960   22.9950 C.ar    1  UNL1        0.0114
      8 C          11.7990   -1.0430   22.0310 C.ar    1  UNL1        0.0076
      9 C          13.1600   -0.8150   22.1040 C.ar    1  UNL1        0.0574
     10 CL         14.2150   -1.6390   20.9860 Cl      1  UNL1       -0.0823
     11 N           7.7410   -0.2650   21.0770 N.am    1  UNL1       -0.2569
     12 C           7.5470   -1.5730   21.7230 C.3     1  UNL1        0.0991
     13 C           8.9190   -1.8580   22.3270 C.3     1  UNL1        0.0354
     14 C           6.8680    0.2090   20.0470 C.ar    1  UNL1        0.0730
     15 C           5.7150    1.0040   20.3300 C.ar    1  UNL1        0.0167
     16 C           5.3020    1.3680   21.6410 C.ar    1  UNL1        0.0013
     17 C           4.2110    2.1690   21.8360 C.ar    1  UNL1        0.0000
     18 C           3.4840    2.6530   20.7560 C.ar    1  UNL1        0.0001
     19 C           3.8450    2.3380   19.4760 C.ar    1  UNL1        0.0016
     20 C           4.9640    1.5040   19.2270 C.ar    1  UNL1        0.0204
     21 C           5.4050    1.1690   17.9240 C.ar    1  UNL1        0.0989
     22 N           6.4770    0.4360   17.6650 N.ar    1  UNL1       -0.2410
     23 C           7.1760   -0.0240   18.7110 C.ar    1  UNL1        0.1137
@<TRIPOS>BOND
     1     2     1    2
     2     3     2    1
     3     3     4    1
     4     5     4   ar
     5     6     5   ar
     6     7     6   ar
     7     8     4   ar
     8     9     8   ar
     9     9     7   ar
    10    10     9    1
    11    11     2   am
    12    12    11    1
    13    13    12    1
    14    13     3    1
    15    14    11    1
    16    15    14   ar
    17    16    15   ar
    18    17    16   ar
    19    18    17   ar
    20    19    18   ar
    21    20    19   ar
    22    20    15   ar
    23    21    20   ar
    24    22    21   ar
    25    23    22   ar
    26    23    14   ar
