@<TRIPOS>MOLECULE
*****
 26 28 0 0 0
SMALL
GASTEIGER

@<TRIPOS>ATOM
      1 N           8.4220   -0.2480   21.9350 N.am    1  UNL1       -0.2001
      2 C           4.8210   -0.1190   21.5620 C.ar    1  UNL1        0.0271
      3 C           8.6760   -0.2610   24.3910 C.3     1  UNL1        0.1683
      4 C          11.2720   -0.5050   22.4720 C.ar    1  UNL1        0.0042
      5 O           8.2700    1.5840   20.6400 O.2     1  UNL1       -0.2733
      6 C           3.5550    2.1550   20.5410 C.ar    1  UNL1        0.0186
      7 C           9.0090    0.4380   23.0820 C.3     1  UNL1        0.1470
      8 C           6.1200    1.0060   18.2420 C.2     1  UNL1        0.2497
      9 C          13.2870    0.8090   22.6850 C.ar    1  UNL1        0.0067
     10 C           6.1530   -0.1210   19.2670 C.3     1  UNL1        0.1112
     11 C           7.5790   -0.5010   19.6860 C.3     1  UNL1        0.1004
     12 C           3.8150    0.5260   22.2420 C.ar    1  UNL1        0.1399
     13 C          10.5150    0.5560   22.9610 C.ar    1  UNL1        0.0004
     14 C          12.6410   -0.3580   22.3330 C.ar    1  UNL1        0.0343
     15 C           3.1680    1.6400   21.7670 C.ar    1  UNL1        0.0310
     16 F           3.4240    0.0140   23.4410 F       1  UNL1       -0.2042
     17 C           5.1970    0.3800   20.3170 C.ar    1  UNL1        0.0043
     18 C          11.1560    1.7390   23.3070 C.ar    1  UNL1       -0.0025
     19 C           6.6470   -1.4520   24.5460 C.3     1  UNL1        0.1742
     20 N           5.1570    1.8830   18.6150 N.am    1  UNL1       -0.1792
     21 O           7.2900   -0.1910   24.6510 O.3     1  UNL1       -0.3489
     22 O           6.8690    1.1250   17.2780 O.2     1  UNL1       -0.2726
     23 C           4.5740    1.5270   19.8310 C.ar    1  UNL1        0.0700
     24 C           8.1110    0.3770   20.7970 C.2     1  UNL1        0.2425
     25 BR         13.6520   -1.7770   21.5730 Br      1  UNL1       -0.0490
     26 C          12.5290    1.8670   23.1670 C.ar    1  UNL1        0.0002
@<TRIPOS>BOND
     1     7     3    1
     2     7     1    1
     3    10     8    1
     4    10    11    1
     5    12     2   ar
     6    13     7    1
     7    13     4   ar
     8    14     9   ar
     9    14     4   ar
    10    15     6   ar
    11    15    12   ar
    12    16    12    1
    13    17     2   ar
    14    17    10    1
    15    18    13   ar
    16    20     8   am
    17    21    19    1
    18    21     3    1
    19    22     8    2
    20    23    20    1
    21    23    17   ar
    22    23     6   ar
    23    24    11    1
    24    24     5    2
    25    24     1   am
    26    25    14    1
    27    26    18   ar
    28    26     9   ar
