@<TRIPOS>MOLECULE
*****
 36 35 0 0 0
SMALL
GASTEIGER

@<TRIPOS>ATOM
      1 N         -18.3540   10.5050   37.5430 N.3     1  SER1       -0.1258
      2 CA        -19.4650   10.1550   36.6650 C.3     1  SER1        0.1718
      3 C         -18.9870    9.3540   35.4550 C.3     1  SER1        0.2458
      4 O         -18.5850    9.9310   34.4410 O.3     1  SER1       -0.2020
      5 CB        -20.2040   11.4160   36.2050 C.3     1  SER1        0.2051
      6 OG        -19.3450   12.2790   35.4780 O.3     1  SER1       -0.2187
      7 N         -19.0360    8.0260   35.5720 N.3     2  ALA2       -0.1853
      8 CA        -18.6150    7.1540   34.4830 C.3     2  ALA2        0.1226
      9 C         -19.5090    7.3520   33.2640 C.3     2  ALA2        0.2417
     10 O         -20.6630    7.7700   33.3740 O.3     2  ALA2       -0.2021
     11 CB        -18.6470    5.6910   34.9270 C.3     2  ALA2        0.0232
     12 N         -18.9630    7.0550   32.0870 N.3     3  VAL3       -0.1854
     13 CA        -19.6580    7.2450   30.8190 C.3     3  VAL3        0.1225
     14 C         -19.9510    5.8790   30.2180 C.3     3  VAL3        0.2417
     15 O         -19.0520    5.0360   30.1150 O.3     3  VAL3       -0.2021
     16 CB        -18.8310    8.1010   29.8460 C.3     3  VAL3        0.0201
     17 CG1       -19.6500    8.4430   28.6090 C.3     3  VAL3        0.0016
     18 CG2       -18.3310    9.3580   30.5350 C.3     3  VAL3        0.0016
     19 N         -21.1990    5.6640   29.8140 N.3     4  LEU4       -0.1854
     20 CA        -21.6010    4.4180   29.1700 C.3     4  LEU4        0.1226
     21 C         -21.5150    4.6120   27.6570 C.3     4  LEU4        0.2418
     22 O         -22.3020    5.3670   27.0740 O.3     4  LEU4       -0.2021
     23 CB        -23.0010    4.0150   29.6260 C.3     4  LEU4        0.0216
     24 CG        -22.9190    3.0880   30.8420 C.3     4  LEU4        0.0015
     25 CD1       -24.2750    2.8550   31.4960 C.3     4  LEU4        0.0000
     26 CD2       -22.2860    1.7690   30.4430 C.3     4  LEU4        0.0000
     27 N         -20.5570    3.9330   27.0260 N.3     5  GLN5       -0.1814
     28 CA        -20.1580    4.2300   25.6500 C.3     5  GLN5        0.1672
     29 C         -20.8440    3.3690   24.5900 C.3     5  GLN5        0.4414
     30 O         -22.0520    3.4610   24.3710 O.2     5  GLN5       -0.2654
     31 CB        -18.6380    4.0830   25.5170 C.3     5  GLN5        0.0297
     32 CG        -17.8650    4.6690   26.6810 C.3     5  GLN5        0.0545
     33 CD        -16.3940    4.8240   26.3710 C.3     5  GLN5        0.2419
     34 OE1       -15.6330    3.8590   26.4130 O.3     5  GLN5       -0.2022
     35 NE2       -15.9890    6.0400   26.0200 N.3     5  GLN5       -0.0968
     36 OXT       -20.2000    2.5580   23.9240 O.2     5  GLN5       -0.2654
@<TRIPOS>BOND
     1     2     1    1
     2     3     2    1
     3     4     3    1
     4     5     2    1
     5     6     5    1
     6     7     3    1
     7     8     7    1
     8     9     8    1
     9    10     9    1
    10     8    11    1
    11    12     9    1
    12    13    12    1
    13    14    13    1
    14    15    14    1
    15    16    13    1
    16    16    17    1
    17    18    16    1
    18    19    14    1
    19    20    19    1
    20    21    20    1
    21    22    21    1
    22    20    23    1
    23    24    23    1
    24    24    25    1
    25    26    24    1
    26    27    21    1
    27    28    27    1
    28    29    28    1
    29    30    29    1
    30    28    31    1
    31    32    31    1
    32    33    32    1
    33    34    33    1
    34    35    33    1
    35    36    29    1
