@<TRIPOS>MOLECULE
*****
 29 32 0 0 0
SMALL
GASTEIGER

@<TRIPOS>ATOM
      1 O           9.1760    1.3840   21.0650 O.2     1  UNL1       -0.2723
      2 C           8.9210    0.3660   21.6870 C.2     1  UNL1        0.2545
      3 C           8.1810   -0.7890   21.0130 C.3     1  UNL1        0.2141
      4 N           7.2520   -0.2970   20.0160 N.ar    1  UNL1       -0.2223
      5 C           6.1250    0.4470   20.1850 C.ar    1  UNL1        0.0994
      6 C           5.4210    0.8800   21.3010 C.ar    1  UNL1        0.0204
      7 C           4.3020    1.6730   21.0840 C.ar    1  UNL1        0.0016
      8 C           3.9150    2.0300   19.7930 C.ar    1  UNL1        0.0017
      9 C           4.6320    1.5960   18.6860 C.ar    1  UNL1        0.0225
     10 C           5.7450    0.7860   18.8910 C.ar    1  UNL1        0.1217
     11 N           6.6390    0.2270   18.0080 N.ar    1  UNL1       -0.1288
     12 N           7.5350   -0.4230   18.6950 N.ar    1  UNL1       -0.0634
     13 N           9.2550    0.2130   23.0010 N.am    1  UNL1       -0.2527
     14 C           9.1060   -1.0040   23.7340 C.ar    1  UNL1        0.0544
     15 C           8.2010   -1.0810   24.7910 C.ar    1  UNL1        0.0180
     16 C           8.1130   -2.2330   25.5530 C.ar    1  UNL1        0.0382
     17 C           9.9080   -2.1000   23.4360 C.ar    1  UNL1        0.0180
     18 C           9.8100   -3.2570   24.1840 C.ar    1  UNL1        0.0382
     19 C           8.9190   -3.3210   25.2480 C.ar    1  UNL1        0.1388
     20 O           8.8030   -4.4280   26.0520 O.3     1  UNL1       -0.4714
     21 C           9.6110   -5.5650   25.7460 C.3     1  UNL1        0.2525
     22 C           9.8250    1.3600   23.7210 C.3     1  UNL1        0.1248
     23 C          11.2690    1.6270   23.3700 C.ar    1  UNL1       -0.0012
     24 C          11.6520    2.8470   22.8180 C.ar    1  UNL1        0.0088
     25 C          12.9490    3.0160   22.3690 C.ar    1  UNL1        0.0574
     26 CL         13.4350    4.5680   21.7480 Cl      1  UNL1       -0.0823
     27 C          13.8770    2.0010   22.4380 C.ar    1  UNL1        0.0114
     28 C          13.5060    0.8020   23.0190 C.ar    1  UNL1        0.0006
     29 C          12.2150    0.6200   23.4870 C.ar    1  UNL1       -0.0025
@<TRIPOS>BOND
     1     2     1    2
     2     3     2    1
     3     4     3    1
     4     5     4   ar
     5     6     5   ar
     6     7     6   ar
     7     8     7   ar
     8     9     8   ar
     9    10     9   ar
    10    10     5   ar
    11    11    10   ar
    12    12    11   ar
    13    12     4   ar
    14    13     2   am
    15    14    13    1
    16    15    14   ar
    17    16    15   ar
    18    17    14   ar
    19    18    17   ar
    20    19    18   ar
    21    19    16   ar
    22    20    19    1
    23    21    20    1
    24    22    13    1
    25    23    22    1
    26    24    23   ar
    27    25    24   ar
    28    26    25    1
    29    27    25   ar
    30    28    27   ar
    31    29    28   ar
    32    29    23   ar
