@<TRIPOS>MOLECULE
*****
 26 29 0 0 0
SMALL
GASTEIGER

@<TRIPOS>ATOM
      1 O           9.7550    0.5940   20.8700 O.3     1  UNL1       -0.2036
      2 C           8.9550   -0.0590   21.5260 C.3     1  UNL1        0.2269
      3 C           9.3950   -0.8370   22.7750 C.3     1  UNL1        0.0662
      4 C          10.8760   -0.5090   22.8320 C.3     1  UNL1        0.0337
      5 C          11.7470   -1.1460   21.9550 C.3     1  UNL1        0.0188
      6 C          13.0720   -0.7750   21.9320 C.3     1  UNL1        0.0801
      7 CL         14.1600   -1.6410   20.8910 Cl      1  UNL1       -0.1150
      8 C          13.5650    0.2270   22.7410 C.3     1  UNL1        0.0187
      9 C          12.7110    0.8710   23.6190 C.3     1  UNL1        0.0308
     10 C          11.3820    0.4870   23.6710 C.3     1  UNL1        0.1154
     11 O          10.6240    1.0990   24.6420 O.3     1  UNL1       -0.3562
     12 C           9.2020    1.0950   24.4070 C.3     1  UNL1        0.1422
     13 C           8.6880   -0.2800   24.0350 C.3     1  UNL1        0.0375
     14 C           9.1710   -2.3600   22.6920 C.3     1  UNL1        0.1133
     15 N           7.7550   -2.7250   22.6750 N.3     1  UNL1       -0.1312
     16 N           7.6440    0.0730   21.3240 N.3     1  UNL1       -0.1892
     17 C           6.9160    0.3080   20.1480 C.3     1  UNL1        0.0926
     18 C           5.5770    0.7520   20.3220 C.3     1  UNL1        0.0189
     19 C           4.9660    0.9150   21.5930 C.3     1  UNL1        0.0015
     20 C           3.7380    1.4970   21.7120 C.3     1  UNL1        0.0000
     21 C           3.0700    1.9660   20.5930 C.3     1  UNL1        0.0000
     22 C           3.6140    1.8250   19.3480 C.3     1  UNL1        0.0015
     23 C           4.8650    1.1870   19.1740 C.3     1  UNL1        0.0188
     24 C           5.4910    1.0190   17.9100 C.3     1  UNL1        0.0887
     25 N           6.7070    0.5040   17.7400 N.3     1  UNL1       -0.2166
     26 C           7.3980    0.1800   18.8410 C.3     1  UNL1        0.1061
@<TRIPOS>BOND
     1     2     1    1
     2     3     2    1
     3     4     3    1
     4     4     5    1
     5     6     5    1
     6     7     6    1
     7     8     6    1
     8     9     8    1
     9    10     4    1
    10    10     9    1
    11    11    10    1
    12    12    11    1
    13    13    12    1
    14    13     3    1
    15     3    14    1
    16    15    14    1
    17    16     2    1
    18    17    16    1
    19    18    17    1
    20    18    19    1
    21    20    19    1
    22    21    20    1
    23    22    21    1
    24    23    22    1
    25    23    18    1
    26    24    23    1
    27    25    24    1
    28    26    25    1
    29    26    17    1
