@<TRIPOS>MOLECULE
*****
 11 11 0 0 0
SMALL
GASTEIGER

@<TRIPOS>ATOM
      1 C          10.1780   -0.7290   22.5700 C.3     1  UNL1        0.0968
      2 C           9.2820   -0.1030   21.5030 C.2     1  UNL1        0.2461
      3 C           7.1790   -0.1530   20.1080 C.ar    1  UNL1        0.0885
      4 C           7.5510   -0.2150   18.7710 C.ar    1  UNL1        0.1151
      5 C           5.6690    0.9130   18.1140 C.ar    1  UNL1        0.0987
      6 C           5.2170    1.0310   19.4220 C.ar    1  UNL1        0.0177
      7 C           5.9870    0.4820   20.4470 C.ar    1  UNL1       -0.0034
      8 C           5.5470    0.5830   21.9050 C.3     1  UNL1        0.0325
      9 N           8.0330   -0.7430   21.1270 N.am    1  UNL1       -0.1779
     10 N           6.7980    0.3080   17.8220 N.ar    1  UNL1       -0.2410
     11 O           9.6090    0.9110   20.9910 O.2     1  UNL1       -0.2730
@<TRIPOS>BOND
     1     2     1    1
     2     4     3   ar
     3     6     5   ar
     4     7     6   ar
     5     7     3   ar
     6     8     7    1
     7     9     3    1
     8     9     2   am
     9    10     5   ar
    10    10     4   ar
    11    11     2    2
