@<TRIPOS>MOLECULE
*****
 25 28 0 0 0
SMALL
GASTEIGER

@<TRIPOS>ATOM
      1 CL         13.9220   -1.7720   20.9240 Cl      1  UNL1       -0.0823
      2 C          12.8220   -0.9250   21.9760 C.ar    1  UNL1        0.0576
      3 C          13.3130    0.0470   22.8210 C.ar    1  UNL1        0.0145
      4 C          12.4440    0.6960   23.6790 C.ar    1  UNL1        0.0374
      5 C          11.4820   -1.2550   21.9480 C.ar    1  UNL1        0.0106
      6 C          10.5930   -0.5950   22.7940 C.ar    1  UNL1        0.0212
      7 C          11.0970    0.3690   23.6600 C.ar    1  UNL1        0.1350
      8 O          10.2900    1.0300   24.5470 O.3     1  UNL1       -0.4757
      9 C           9.2980    0.1760   25.1310 C.3     1  UNL1        0.2062
     10 C           8.3600   -0.4250   24.1080 C.3     1  UNL1        0.0610
     11 C           9.1020   -0.8600   22.7910 C.3     1  UNL1        0.1074
     12 C           8.5300   -0.0930   21.5960 C.2     1  UNL1        0.2496
     13 O           9.1820    0.7620   21.0000 O.2     1  UNL1       -0.2726
     14 N           7.2190   -0.3350   21.3530 N.am    1  UNL1       -0.1726
     15 C           6.4170    0.0580   20.2650 C.ar    1  UNL1        0.1443
     16 C           6.9300    0.3120   19.0070 C.ar    1  UNL1        0.3183
     17 C           5.1040    0.5410   20.5780 C.ar    1  UNL1        0.0274
     18 C           4.4110    1.2980   19.5900 C.ar    1  UNL1        0.0725
     19 C           5.0160    1.5020   18.3460 C.ar    1  UNL1        0.3016
     20 N           6.2430    1.0150   18.0770 N.ar    1  UNL1       -0.1508
     21 O           6.8000    1.2710   16.9230 O.co2   1  UNL1       -0.6187
     22 C           3.1670    1.8860   19.9190 C.ar    1  UNL1        0.0062
     23 C           2.6320    1.7260   21.1640 C.ar    1  UNL1        0.0002
     24 C           3.2940    0.9810   22.1270 C.ar    1  UNL1        0.0000
     25 C           4.4970    0.3960   21.8500 C.ar    1  UNL1        0.0017
@<TRIPOS>UNITY_ATOM_ATTR
20 1
charge 1
21 1
charge -1
@<TRIPOS>BOND
     1     2     1    1
     2     3     2   ar
     3     4     3   ar
     4     5     2   ar
     5     6     5   ar
     6     7     6   ar
     7     7     4   ar
     8     8     7    1
     9     9     8    1
    10    10     9    1
    11    11    10    1
    12    11     6    1
    13    11    12    1
    14    13    12    2
    15    14    12   am
    16    15    14    1
    17    16    15   ar
    18    17    15   ar
    19    18    17   ar
    20    19    18   ar
    21    20    19   ar
    22    20    16   ar
    23    21    20    1
    24    22    18   ar
    25    23    22   ar
    26    24    23   ar
    27    25    17   ar
    28    25    24   ar
