@<TRIPOS>MOLECULE
*****
 22 24 0 0 0
SMALL
GASTEIGER

@<TRIPOS>ATOM
      1 N           6.4820    0.4930   17.6400 N.ar    1  UNL1       -0.2410
      2 C           5.6360    0.7950   20.2890 C.ar    1  UNL1        0.0290
      3 C          12.4510    0.5920   24.0200 C.ar    1  UNL1        0.0374
      4 O           9.3250    1.0650   21.3070 O.2     1  UNL1       -0.2726
      5 C           8.3040   -0.1640   24.0890 C.3     1  UNL1        0.0610
      6 C           4.9460    1.3890   19.2420 C.ar    1  UNL1        0.0202
      7 C           8.7020    0.0650   21.6430 C.2     1  UNL1        0.2494
      8 C           6.7870    0.0570   19.9810 C.ar    1  UNL1        0.0910
      9 C           7.1280   -0.1050   18.6420 C.ar    1  UNL1        0.1151
     10 C          11.0950    0.3030   23.9730 C.ar    1  UNL1        0.1350
     11 C          12.8090   -0.9360   22.2300 C.ar    1  UNL1        0.0576
     12 C           8.9390    1.1300   24.5280 C.3     1  UNL1        0.2062
     13 C          13.3120   -0.0180   23.1260 C.ar    1  UNL1        0.0145
     14 C          11.4660   -1.2440   22.1820 C.ar    1  UNL1        0.0106
     15 C           5.0830    0.8590   21.6920 C.3     1  UNL1        0.2100
     16 N           7.6980   -0.4310   20.9180 N.am    1  UNL1       -0.1776
     17 O           5.7840    1.7850   22.5090 O.3     1  UNL1       -0.2151
     18 O          10.3160    0.9370   24.9110 O.3     1  UNL1       -0.4757
     19 C           9.0730   -0.7490   22.8830 C.3     1  UNL1        0.1074
     20 C           5.4130    1.2310   17.9520 C.ar    1  UNL1        0.0987
     21 C          10.5750   -0.5970   23.0380 C.ar    1  UNL1        0.0212
     22 CL         13.8990   -1.7370   21.1310 Cl      1  UNL1       -0.0823
@<TRIPOS>BOND
     1     6     2   ar
     2     7     4    2
     3     8     2   ar
     4     9     8   ar
     5     9     1   ar
     6    10     3   ar
     7    12     5    1
     8    13    11   ar
     9    13     3   ar
    10    14    11   ar
    11    15     2    1
    12    16     8    1
    13    16     7   am
    14    17    15    1
    15    18    12    1
    16    18    10    1
    17    19     7    1
    18    19     5    1
    19    20     6   ar
    20    20     1   ar
    21    21    19    1
    22    21    14   ar
    23    21    10   ar
    24    22    11    1
