@<TRIPOS>MOLECULE
*****
 33 37 0 0 0
SMALL
GASTEIGER

@<TRIPOS>ATOM
      1 CL         14.0710   -1.5460   21.2690 Cl      1  UNL1       -0.0823
      2 C          12.9280   -0.8300   22.3710 C.ar    1  UNL1        0.0574
      3 C          11.5970   -1.1860   22.2820 C.ar    1  UNL1        0.0074
      4 C          13.3630    0.1130   23.2720 C.ar    1  UNL1        0.0111
      5 C          12.4420    0.7110   24.1100 C.ar    1  UNL1       -0.0023
      6 C          11.0850    0.4000   24.0330 C.ar    1  UNL1       -0.0078
      7 C          10.1320    1.1510   24.9440 C.3     1  UNL1        0.1229
      8 N           8.7190    0.8120   24.7270 N.3     1  UNL1       -0.1401
      9 S           7.4560    1.7140   25.1140 S.O2    1  UNL1        0.1025
     10 O           7.6260    2.1470   26.4560 O.2     1  UNL1       -0.1408
     11 O           6.2900    1.0000   24.7200 O.2     1  UNL1       -0.1408
     12 N           7.6100    3.0040   24.1870 N.3     1  UNL1       -0.1403
     13 C           7.8000    4.4500   24.4820 C.3     1  UNL1        0.1279
     14 C           7.5640    3.2660   22.7230 C.3     1  UNL1        0.1279
     15 C           7.2430    4.7260   23.0760 C.3     1  UNL1        0.1507
     16 O           5.8220    4.8310   23.0390 O.3     1  UNL1       -0.3506
     17 C           5.3280    5.4310   21.8560 C.3     1  UNL1        0.1741
     18 C          10.6570   -0.5490   23.0940 C.ar    1  UNL1       -0.0142
     19 C           9.1790   -0.8370   22.9290 C.3     1  UNL1        0.1182
     20 C           8.4400   -0.5500   24.2320 C.3     1  UNL1        0.1108
     21 C           8.6390   -0.0470   21.7330 C.2     1  UNL1        0.2507
     22 O           9.2600    0.8930   21.2380 O.2     1  UNL1       -0.2726
     23 N           7.4550   -0.4950   21.2460 N.am    1  UNL1       -0.1773
     24 C           6.7320   -0.0310   20.1270 C.ar    1  UNL1        0.0925
     25 C           5.5500    0.7470   20.3390 C.ar    1  UNL1        0.0184
     26 C           5.0010    1.0170   21.6190 C.ar    1  UNL1        0.0014
     27 C           3.8920    1.8020   21.7570 C.ar    1  UNL1        0.0000
     28 C           3.2710    2.3540   20.6450 C.ar    1  UNL1        0.0001
     29 C           3.7460    2.1060   19.3890 C.ar    1  UNL1        0.0016
     30 C           4.8920    1.2930   19.2000 C.ar    1  UNL1        0.0204
     31 C           5.4290    0.9990   17.9220 C.ar    1  UNL1        0.0989
     32 N           6.5110    0.2570   17.7240 N.ar    1  UNL1       -0.2410
     33 C           7.1350   -0.2310   18.8050 C.ar    1  UNL1        0.1154
@<TRIPOS>BOND
     1     2     1    1
     2     3     2   ar
     3     4     2   ar
     4     5     4   ar
     5     6     5   ar
     6     7     6    1
     7     8     7    1
     8     9     8    1
     9    10     9    2
    10    11     9    2
    11    12     9    1
    12    13    12    1
    13    14    12    1
    14    15    14    1
    15    15    13    1
    16    15    16    1
    17    17    16    1
    18    18     6   ar
    19    18     3   ar
    20    19    18    1
    21    20    19    1
    22    20     8    1
    23    19    21    1
    24    22    21    2
    25    23    21   am
    26    24    23    1
    27    25    24   ar
    28    26    25   ar
    29    27    26   ar
    30    28    27   ar
    31    29    28   ar
    32    30    29   ar
    33    30    25   ar
    34    31    30   ar
    35    32    31   ar
    36    33    32   ar
    37    33    24   ar
