@<TRIPOS>MOLECULE
*****
 26 28 0 0 0
SMALL
GASTEIGER

@<TRIPOS>ATOM
      1 O           6.7590    1.0460   16.9970 O.2     1  UNL1       -0.2652
      2 C           6.1200    0.7430   18.0000 C.ar    1  UNL1        0.2794
      3 C           6.3580   -0.4360   18.7640 C.ar    1  UNL1        0.0671
      4 N           5.1790    1.6050   18.5040 N.ar    1  UNL1       -0.2079
      5 C           4.5130    1.4250   19.7080 C.ar    1  UNL1        0.0847
      6 C           4.7970    0.2930   20.4900 C.ar    1  UNL1        0.0223
      7 C           4.1510    0.1350   21.7190 C.ar    1  UNL1        0.0016
      8 C           3.2020    1.0530   22.1300 C.ar    1  UNL1        0.0001
      9 C           2.8950    2.1380   21.3380 C.ar    1  UNL1        0.0015
     10 C           3.5510    2.3410   20.1340 C.ar    1  UNL1        0.0192
     11 C           5.7420   -0.6780   19.9490 C.ar    1  UNL1        0.0598
     12 C           5.9260   -1.9990   20.6070 C.2     1  UNL1        0.2494
     13 O           5.3220   -2.9750   20.1920 O.2     1  UNL1       -0.2699
     14 N           6.7920   -2.1120   21.6830 N.am    1  UNL1       -0.2705
     15 C           6.9630   -3.3710   22.3920 C.3     1  UNL1        0.1153
     16 C           7.6460   -1.0030   22.1080 C.3     1  UNL1        0.1410
     17 C           9.0680   -1.2190   21.6710 C.3     1  UNL1        0.2269
     18 O           9.8390   -1.2800   22.8780 O.3     1  UNL1       -0.4706
     19 C          11.1190   -0.8110   22.8260 C.ar    1  UNL1        0.1723
     20 C          11.3320    0.4750   23.3630 C.ar    1  UNL1        0.1724
     21 O          10.2060    1.1150   23.8080 O.3     1  UNL1       -0.4684
     22 C          10.3660    2.3370   24.5270 C.3     1  UNL1        0.2526
     23 C          12.1750   -1.5160   22.2750 C.ar    1  UNL1        0.0400
     24 C          13.4350   -0.9460   22.2500 C.ar    1  UNL1        0.0033
     25 C          13.6510    0.3050   22.7950 C.ar    1  UNL1        0.0033
     26 C          12.6090    1.0180   23.3620 C.ar    1  UNL1        0.0400
@<TRIPOS>BOND
     1     2     1    2
     2     3     2   ar
     3     4     2   ar
     4     5     4   ar
     5     6     5   ar
     6     7     6   ar
     7     8     7   ar
     8     9     8   ar
     9    10     9   ar
    10    10     5   ar
    11    11     6   ar
    12    11     3   ar
    13    12    11    1
    14    13    12    2
    15    14    12   am
    16    15    14    1
    17    16    14    1
    18    17    16    1
    19    18    17    1
    20    19    18    1
    21    20    19   ar
    22    21    20    1
    23    22    21    1
    24    23    19   ar
    25    24    23   ar
    26    25    24   ar
    27    26    25   ar
    28    26    20   ar
