@<TRIPOS>MOLECULE
*****
 17 18 0 0 0
SMALL
GASTEIGER

@<TRIPOS>ATOM
      1 N           8.4210   -2.1870   23.1420 N.3     1  UNL1       -0.2660
      2 C          11.2310    2.1700   24.6510 C.3     1  UNL1        0.0310
      3 O           5.7690   -4.1820   19.6650 O.2     1  UNL1       -0.2749
      4 C          11.4630    0.7840   24.1210 C.ar    1  UNL1       -0.0221
      5 C           8.8030   -1.6510   21.8320 C.3     1  UNL1        0.0942
      6 C           6.4720   -3.1780   19.6930 C.2     1  UNL1        0.2262
      7 C           7.0910   -2.6640   18.4220 C.3     1  UNL1        0.0948
      8 C          10.4970   -0.2000   24.2610 C.ar    1  UNL1       -0.0072
      9 C          12.6420    0.4500   23.4710 C.ar    1  UNL1       -0.0043
     10 C          12.8480   -0.8220   22.9690 C.ar    1  UNL1       -0.0006
     11 C          11.8720   -1.7890   23.1220 C.ar    1  UNL1       -0.0029
     12 C          10.6940   -1.4930   23.7880 C.ar    1  UNL1       -0.0065
     13 C           9.6050   -2.5230   23.9370 C.3     1  UNL1        0.0992
     14 C           7.5600   -3.3610   22.9860 C.3     1  UNL1        0.0942
     15 C           6.3460   -3.0320   22.1500 C.3     1  UNL1        0.1107
     16 C           7.5880   -1.3340   20.9930 C.3     1  UNL1        0.1107
     17 N           6.7730   -2.5360   20.8450 N.am    1  UNL1       -0.2767
@<TRIPOS>BOND
     1     4     2    1
     2     5     1    1
     3     6     3    2
     4     7     6    1
     5     8     4   ar
     6     9     4   ar
     7    10     9   ar
     8    11    10   ar
     9    12     8   ar
    10    12    11   ar
    11    13    12    1
    12    13     1    1
    13    14     1    1
    14    15    14    1
    15    16     5    1
    16    17    16    1
    17    17     6   am
    18    17    15    1
