@<TRIPOS>MOLECULE
*****
 17 18 0 0 0
SMALL
GASTEIGER

@<TRIPOS>ATOM
      1 O           9.0680    0.8800   20.9630 O.2     1  UNL1       -0.2726
      2 C           8.4900   -0.1230   21.3590 C.2     1  UNL1        0.2500
      3 C           8.9870   -0.9270   22.5440 C.3     1  UNL1        0.1135
      4 C          10.4590   -0.6960   22.7890 C.ar    1  UNL1       -0.0122
      5 C          10.8970    0.1970   23.7590 C.ar    1  UNL1       -0.0037
      6 C          12.2430    0.4970   23.8890 C.ar    1  UNL1        0.0006
      7 C          13.1780   -0.1010   23.0590 C.ar    1  UNL1        0.0114
      8 C          11.4010   -1.3160   21.9770 C.ar    1  UNL1        0.0076
      9 C          12.7380   -1.0080   22.1200 C.ar    1  UNL1        0.0574
     10 CL         13.8990   -1.8270   21.1200 Cl      1  UNL1       -0.0823
     11 N           7.3580   -0.5750   20.8120 N.am    1  UNL1       -0.1773
     12 C           6.6810    0.0460   19.7520 C.ar    1  UNL1        0.0925
     13 C           7.2310    0.0370   18.4730 C.ar    1  UNL1        0.1154
     14 N           6.6970    0.6910   17.4400 N.ar    1  UNL1       -0.2410
     15 C           5.5750    1.3840   17.6630 C.ar    1  UNL1        0.0990
     16 C           4.9460    1.4450   18.8890 C.ar    1  UNL1        0.0220
     17 C           5.5130    0.7690   19.9520 C.ar    1  UNL1        0.0198
@<TRIPOS>BOND
     1     2     1    2
     2     3     2    1
     3     4     3    1
     4     5     4   ar
     5     6     5   ar
     6     7     6   ar
     7     8     4   ar
     8     9     8   ar
     9     9     7   ar
    10    10     9    1
    11    11     2   am
    12    12    11    1
    13    13    12   ar
    14    14    13   ar
    15    15    14   ar
    16    16    15   ar
    17    17    16   ar
    18    17    12   ar
