@<TRIPOS>MOLECULE
*****
 21 22 0 0 0
SMALL
GASTEIGER

@<TRIPOS>ATOM
      1 F          14.5070   -0.4660   23.3950 F       1  UNL1       -0.1659
      2 C          13.5970   -1.2720   22.9080 C.3     1  UNL1        0.4186
      3 F          13.8350   -1.3010   21.5890 F       1  UNL1       -0.1659
      4 F          13.8620   -2.4860   23.4070 F       1  UNL1       -0.1659
      5 C          12.2180   -0.8120   23.2420 C.ar    1  UNL1        0.0711
      6 C          11.9880   -0.0200   24.3630 C.ar    1  UNL1        0.0038
      7 C          10.6980    0.2990   24.7420 C.ar    1  UNL1       -0.0004
      8 C           9.6270   -0.1720   24.0010 C.ar    1  UNL1       -0.0038
      9 C          11.1380   -1.2620   22.4950 C.ar    1  UNL1        0.0001
     10 C           9.8360   -0.9560   22.8720 C.ar    1  UNL1       -0.0131
     11 C           8.6750   -1.4860   22.0720 C.3     1  UNL1        0.1134
     12 C           8.1990   -0.4320   21.0950 C.2     1  UNL1        0.2500
     13 O           8.8460    0.5880   20.8730 O.2     1  UNL1       -0.2726
     14 N           7.0230   -0.7180   20.5050 N.am    1  UNL1       -0.1777
     15 C           6.4340    0.0270   19.4700 C.ar    1  UNL1        0.0885
     16 C           5.2950    0.8080   19.7320 C.ar    1  UNL1       -0.0034
     17 C           4.7210    0.9430   21.1190 C.3     1  UNL1        0.0325
     18 C           6.9930    0.0420   18.1970 C.ar    1  UNL1        0.1151
     19 N           6.4960    0.7760   17.1950 N.ar    1  UNL1       -0.2410
     20 C           5.4050    1.5140   17.4500 C.ar    1  UNL1        0.0987
     21 C           4.7750    1.5460   18.6760 C.ar    1  UNL1        0.0177
@<TRIPOS>BOND
     1     2     1    1
     2     3     2    1
     3     4     2    1
     4     5     2    1
     5     6     5   ar
     6     7     6   ar
     7     8     7   ar
     8     9     5   ar
     9    10     8   ar
    10    10     9   ar
    11    11    10    1
    12    12    11    1
    13    13    12    2
    14    14    12   am
    15    15    14    1
    16    16    15   ar
    17    17    16    1
    18    18    15   ar
    19    19    18   ar
    20    20    19   ar
    21    21    20   ar
    22    21    16   ar
