
     RDKit          3D

 49 51  0  0  0  0  0  0  0  0999 V2000
  -18.4270   11.5000   38.1030 C   0  0  0  0  0  0  0  0  0  0  0  0
  -19.3330   12.0410   38.9860 C   0  0  0  0  0  0  0  0  0  0  0  0
  -19.0520   13.1680   39.9780 C   0  0  0  0  0  0  0  0  0  0  0  0
  -20.5120   11.4020   38.8240 O   0  0  0  0  0  0  0  0  0  0  0  0
  -20.3430   10.4400   37.8240 N   0  0  0  0  0  0  0  0  0  0  0  0
  -19.0700   10.5080   37.3910 C   0  0  0  0  0  0  0  0  0  0  0  0
  -18.4510    9.6250   36.2820 C   0  0  0  0  0  0  0  0  0  0  0  0
  -17.9350   10.1430   35.3150 O   0  0  0  0  0  0  0  0  0  0  0  0
  -18.4940    8.1760   36.3970 N   0  0  0  0  0  0  0  0  0  0  0  0
  -17.9310    7.3710   35.3470 C   0  0  2  0  0  0  0  0  0  0  0  0
  -18.8630    7.5060   34.1440 C   0  0  0  0  0  0  0  0  0  0  0  0
  -20.0520    7.7960   34.3210 O   0  0  0  0  0  0  0  0  0  0  0  0
  -17.8780    5.9390   35.7910 C   0  0  0  0  0  0  0  0  0  0  0  0
  -18.3940    7.3180   32.7810 N   0  0  0  0  0  0  0  0  0  0  0  0
  -19.3820    7.4930   31.7220 C   0  0  2  0  0  0  0  0  0  0  0  0
  -19.7080    6.1770   31.0590 C   0  0  0  0  0  0  0  0  0  0  0  0
  -18.8140    5.4510   30.6120 O   0  0  0  0  0  0  0  0  0  0  0  0
  -18.8770    8.4960   30.7130 C   0  0  1  0  0  0  0  0  0  0  0  0
  -19.3820    9.8670   31.1250 C   0  0  0  0  0  0  0  0  0  0  0  0
  -17.3650    8.5150   30.7320 C   0  0  0  0  0  0  0  0  0  0  0  0
  -21.1250    5.7700   30.9520 N   0  0  0  0  0  0  0  0  0  0  0  0
  -21.5350    4.5340   30.3440 C   0  0  2  0  0  0  0  0  0  0  0  0
  -21.4280    4.6040   28.8070 C   0  0  0  0  0  0  0  0  0  0  0  0
  -22.4300    4.8470   28.1440 O   0  0  0  0  0  0  0  0  0  0  0  0
  -22.9720    4.3350   30.7230 C   0  0  0  0  0  0  0  0  0  0  0  0
  -23.3670    2.8390   30.8640 C   0  0  1  0  0  0  0  0  0  0  0  0
  -22.2470    2.0220   31.5390 C   0  0  0  0  0  0  0  0  0  0  0  0
  -24.7010    2.7380   31.7430 C   0  0  0  0  0  0  0  0  0  0  0  0
  -20.1000    4.4470   26.6500 C   0  0  2  0  0  0  0  0  0  0  0  0
  -20.7130    3.2090   26.0890 C   0  0  0  0  0  0  0  0  0  0  0  0
  -21.8490    3.0760   25.2690 C   0  0  0  0  0  0  0  0  0  0  0  0
  -22.7780    4.1820   24.7200 C   0  0  0  0  0  0  0  0  0  0  0  0
  -18.6350    4.4810   26.2310 C   0  0  0  0  0  0  0  0  0  0  0  0
  -17.9910    5.5560   26.8760 C   0  0  2  0  0  0  0  0  0  0  0  0
  -18.1310    6.8160   26.0110 C   0  0  0  0  0  0  0  0  0  0  0  0
  -16.9440    7.5040   26.2260 C   0  0  0  0  0  0  0  0  0  0  0  0
  -15.8800    6.4370   26.5180 N   0  0  0  0  0  0  0  0  0  0  0  0
  -16.4690    5.3210   26.8860 C   0  0  0  0  0  0  0  0  0  0  0  0
  -15.9010    4.2780   27.1910 O   0  0  0  0  0  0  0  0  0  0  0  0
  -20.1620    4.3790   28.1120 N   0  0  0  0  0  0  0  0  0  0  0  0
  -23.6160    3.8720   23.9310 O   0  0  0  0  0  0  0  0  0  0  0  0
  -23.9440    6.2530   25.2550 C   0  0  0  0  0  0  0  0  0  0  0  0
  -22.6670    5.5540   25.1270 O   0  0  0  0  0  0  0  0  0  0  0  0
  -24.6800    8.5190   24.1400 C   0  0  0  0  0  0  0  0  0  0  0  0
  -24.8490    9.3230   23.0060 C   0  0  0  0  0  0  0  0  0  0  0  0
  -24.5020    8.8380   21.7410 C   0  0  0  0  0  0  0  0  0  0  0  0
  -23.9840    7.5450   21.6000 C   0  0  0  0  0  0  0  0  0  0  0  0
  -23.8140    6.7390   22.7280 C   0  0  0  0  0  0  0  0  0  0  0  0
  -24.1620    7.2190   24.0030 C   0  0  0  0  0  0  0  0  0  0  0  0
  2  1  1  0
  3  2  1  0
  4  2  1  0
  5  4  1  0
  6  5  1  0
  6  1  1  0
  7  6  1  0
  8  7  1  0
  9  7  1  0
 10  9  1  0
 11 10  1  0
 12 11  1  0
 10 13  1  1
 14 11  1  0
 15 14  1  1
 16 15  1  0
 17 16  1  0
 18 15  1  0
 18 19  1  1
 20 18  1  0
 21 16  1  0
 22 21  1  0
 23 22  1  0
 24 23  1  0
 22 25  1  6
 26 25  1  0
 26 27  1  1
 28 26  1  0
 29 30  1  6
 31 30  1  0
 32 31  1  0
 33 29  1  0
 34 33  1  6
 35 34  1  0
 36 35  1  0
 37 36  1  0
 38 34  1  0
 38 37  1  0
 39 38  1  0
 40 29  1  0
 40 23  1  0
 41 32  1  0
 43 32  1  0
 43 42  1  0
 45 44  1  0
 46 45  1  0
 47 46  1  0
 48 47  1  0
 49 48  1  0
 49 44  1  0
 49 42  1  0
M  END
