@<TRIPOS>MOLECULE
*****
 49 51 0 0 0
SMALL
GASTEIGER

@<TRIPOS>ATOM
      1 C         -18.4270   11.5000   38.1030 C.3     1  UNL1        0.0559
      2 C         -19.3330   12.0410   38.9860 C.3     1  UNL1        0.1410
      3 C         -19.0520   13.1680   39.9780 C.3     1  UNL1        0.0343
      4 O         -20.5120   11.4020   38.8240 O.3     1  UNL1       -0.2687
      5 N         -20.3430   10.4400   37.8240 N.3     1  UNL1       -0.0810
      6 C         -19.0700   10.5080   37.3910 C.3     1  UNL1        0.1526
      7 C         -18.4510    9.6250   36.2820 C.3     1  UNL1        0.2442
      8 O         -17.9350   10.1430   35.3150 O.3     1  UNL1       -0.2020
      9 N         -18.4940    8.1760   36.3970 N.3     1  UNL1       -0.1853
     10 C         -17.9310    7.3710   35.3470 C.3     1  UNL1        0.1226
     11 C         -18.8630    7.5060   34.1440 C.3     1  UNL1        0.2417
     12 O         -20.0520    7.7960   34.3210 O.3     1  UNL1       -0.2021
     13 C         -17.8780    5.9390   35.7910 C.3     1  UNL1        0.0232
     14 N         -18.3940    7.3180   32.7810 N.3     1  UNL1       -0.1854
     15 C         -19.3820    7.4930   31.7220 C.3     1  UNL1        0.1225
     16 C         -19.7080    6.1770   31.0590 C.3     1  UNL1        0.2417
     17 O         -18.8140    5.4510   30.6120 O.3     1  UNL1       -0.2021
     18 C         -18.8770    8.4960   30.7130 C.3     1  UNL1        0.0201
     19 C         -19.3820    9.8670   31.1250 C.3     1  UNL1        0.0016
     20 C         -17.3650    8.5150   30.7320 C.3     1  UNL1        0.0016
     21 N         -21.1250    5.7700   30.9520 N.3     1  UNL1       -0.1854
     22 C         -21.5350    4.5340   30.3440 C.3     1  UNL1        0.1226
     23 C         -21.4280    4.6040   28.8070 C.3     1  UNL1        0.2416
     24 O         -22.4300    4.8470   28.1440 O.3     1  UNL1       -0.2021
     25 C         -22.9720    4.3350   30.7230 C.3     1  UNL1        0.0216
     26 C         -23.3670    2.8390   30.8640 C.3     1  UNL1        0.0015
     27 C         -22.2470    2.0220   31.5390 C.3     1  UNL1        0.0000
     28 C         -24.7010    2.7380   31.7430 C.3     1  UNL1        0.0000
     29 C         -20.1000    4.4470   26.6500 C.3     1  UNL1        0.0756
     30 C         -20.7130    3.2090   26.0890 C.3     1  UNL1        0.0228
     31 C         -21.8490    3.0760   25.2690 C.3     1  UNL1        0.0658
     32 C         -22.7780    4.1820   24.7200 C.3     1  UNL1        0.2690
     33 C         -18.6350    4.4810   26.2310 C.3     1  UNL1        0.0215
     34 C         -17.9910    5.5560   26.8760 C.3     1  UNL1        0.0503
     35 C         -18.1310    6.8160   26.0110 C.3     1  UNL1        0.0229
     36 C         -16.9440    7.5040   26.2260 C.3     1  UNL1        0.0914
     37 N         -15.8800    6.4370   26.5180 N.3     1  UNL1       -0.1893
     38 C         -16.4690    5.3210   26.8860 C.3     1  UNL1        0.2255
     39 O         -15.9010    4.2780   27.1910 O.3     1  UNL1       -0.2037
     40 N         -20.1620    4.3790   28.1120 N.3     1  UNL1       -0.1895
     41 O         -23.6160    3.8720   23.9310 O.3     1  UNL1       -0.1899
     42 C         -23.9440    6.2530   25.2550 C.3     1  UNL1        0.1448
     43 O         -22.6670    5.5540   25.1270 O.3     1  UNL1       -0.3285
     44 C         -24.6800    8.5190   24.1400 C.3     1  UNL1        0.0025
     45 C         -24.8490    9.3230   23.0060 C.3     1  UNL1        0.0001
     46 C         -24.5020    8.8380   21.7410 C.3     1  UNL1        0.0000
     47 C         -23.9840    7.5450   21.6000 C.3     1  UNL1        0.0001
     48 C         -23.8140    6.7390   22.7280 C.3     1  UNL1        0.0025
     49 C         -24.1620    7.2190   24.0030 C.3     1  UNL1        0.0298
@<TRIPOS>BOND
     1     2     1    1
     2     3     2    1
     3     4     2    1
     4     5     4    1
     5     6     5    1
     6     6     1    1
     7     7     6    1
     8     8     7    1
     9     9     7    1
    10    10     9    1
    11    11    10    1
    12    12    11    1
    13    10    13    1
    14    14    11    1
    15    15    14    1
    16    16    15    1
    17    17    16    1
    18    18    15    1
    19    18    19    1
    20    20    18    1
    21    21    16    1
    22    22    21    1
    23    23    22    1
    24    24    23    1
    25    22    25    1
    26    26    25    1
    27    26    27    1
    28    28    26    1
    29    29    30    1
    30    31    30    1
    31    32    31    1
    32    33    29    1
    33    34    33    1
    34    35    34    1
    35    36    35    1
    36    37    36    1
    37    38    34    1
    38    38    37    1
    39    39    38    1
    40    40    29    1
    41    40    23    1
    42    41    32    1
    43    43    32    1
    44    43    42    1
    45    45    44    1
    46    46    45    1
    47    47    46    1
    48    48    47    1
    49    49    48    1
    50    49    44    1
    51    49    42    1
