@<TRIPOS>MOLECULE
*****
 18 19 0 0 0
SMALL
GASTEIGER

@<TRIPOS>ATOM
      1 CL         14.3470   -1.5000   21.5190 Cl      1  UNL1       -0.0822
      2 C          13.0180   -0.7020   22.3000 C.ar    1  UNL1        0.0590
      3 C          13.2690    0.3900   23.1100 C.ar    1  UNL1        0.0115
      4 C          12.2100    0.9740   23.7880 C.ar    1  UNL1        0.0022
      5 C          10.9200    0.4990   23.6170 C.ar    1  UNL1        0.0167
      6 C          11.7430   -1.1950   22.1150 C.ar    1  UNL1        0.0280
      7 C          10.6810   -0.5570   22.7450 C.ar    1  UNL1        0.0758
      8 N           9.3770   -0.8200   22.2740 N.am    1  UNL1       -0.1607
      9 C           8.7350   -0.0500   21.3440 C.2     1  UNL1        0.3478
     10 O           9.2010    0.9970   20.9010 O.2     1  UNL1       -0.2484
     11 N           7.5410   -0.5720   20.9290 N.am    1  UNL1       -0.1591
     12 C           6.7550   -0.0210   19.8950 C.ar    1  UNL1        0.0954
     13 C           7.2160   -0.0810   18.5820 C.ar    1  UNL1        0.1155
     14 N           6.6190    0.5340   17.5590 N.ar    1  UNL1       -0.2395
     15 C           5.5060    1.2230   17.8120 C.ar    1  UNL1        0.1169
     16 C           5.5950    0.7040   20.1410 C.ar    1  UNL1        0.0379
     17 C           4.9440    1.3510   19.0910 C.ar    1  UNL1        0.1095
     18 N           3.8130    2.0940   19.3190 N.pl3   1  UNL1       -0.1264
@<TRIPOS>BOND
     1     2     1    1
     2     3     2   ar
     3     4     3   ar
     4     5     4   ar
     5     6     2   ar
     6     7     6   ar
     7     7     5   ar
     8     8     7    1
     9     9     8   am
    10    10     9    2
    11    11     9   am
    12    12    11    1
    13    13    12   ar
    14    14    13   ar
    15    15    14   ar
    16    16    12   ar
    17    17    16   ar
    18    17    15   ar
    19    18    17    1
