@<TRIPOS>MOLECULE
*****
 19 20 0 0 0
SMALL
GASTEIGER

@<TRIPOS>ATOM
      1 N           6.7810   -5.0880   21.8200 N.am    1  UNL1       -0.2766
      2 C           7.9700   -3.6010   20.2830 C.3     1  UNL1        0.0948
      3 O           5.9290   -4.6930   19.7660 O.2     1  UNL1       -0.2749
      4 C           6.8070   -4.5070   20.5990 C.2     1  UNL1        0.2262
      5 C           1.7480   -3.7760   25.8060 C.ar    1  UNL1        0.0128
      6 C           2.7630   -4.7120   25.7700 C.ar    1  UNL1        0.0208
      7 C           5.8540   -6.1670   22.1640 C.3     1  UNL1        0.1126
      8 C           5.0470   -5.8010   23.3820 C.3     1  UNL1        0.1173
      9 C           6.8380   -4.3530   24.1450 C.3     1  UNL1        0.1173
     10 C           7.6550   -4.7220   22.9370 C.3     1  UNL1        0.1126
     11 C           4.0560   -4.3310   26.0590 C.ar    1  UNL1        0.1223
     12 C           4.3510   -3.0210   26.3740 C.ar    1  UNL1        0.0208
     13 C           3.3380   -2.0810   26.4090 C.ar    1  UNL1        0.0128
     14 C           2.0480   -2.4710   26.1260 C.ar    1  UNL1        0.0578
     15 N           5.9700   -5.4900   24.4840 N.3     1  UNL1       -0.1520
     16 O           6.3990   -5.1010   26.8790 O.2     1  UNL1       -0.1528
     17 O           4.7690   -6.8220   26.1700 O.2     1  UNL1       -0.1528
     18 S           5.3550   -5.5300   26.0010 S.O2    1  UNL1        0.0634
     19 CL          0.7730   -1.2880   26.1690 Cl      1  UNL1       -0.0822
@<TRIPOS>BOND
     1     4     3    2
     2     4     2    1
     3     4     1   am
     4     6     5   ar
     5     7     1    1
     6     8     7    1
     7    10     9    1
     8    10     1    1
     9    11     6   ar
    10    12    11   ar
    11    13    12   ar
    12    14    13   ar
    13    14     5   ar
    14    15     8    1
    15    15     9    1
    16    18    17    2
    17    18    11    1
    18    18    15    1
    19    18    16    2
    20    19    14    1
