@<TRIPOS>MOLECULE
*****
 20 22 0 0 0
SMALL
GASTEIGER

@<TRIPOS>ATOM
      1 CL         24.9130  -27.9700   20.0660 Cl      1  UNL1       -0.0822
      2 C          24.4060  -27.2360   18.5750 C.ar    1  UNL1        0.0578
      3 C          24.7980  -27.8110   17.3840 C.ar    1  UNL1        0.0129
      4 C          24.4060  -27.2400   16.1860 C.ar    1  UNL1        0.0200
      5 C          23.6260  -26.0950   16.2140 C.ar    1  UNL1        0.0813
      6 N          23.1690  -25.3220   15.1630 N.ar    1  UNL1       -0.2457
      7 C          22.4630  -24.2510   15.6720 C.ar    1  UNL1        0.0770
      8 C          21.9080  -23.1770   14.9710 C.ar    1  UNL1       -0.0076
      9 C          21.9260  -23.1760   13.4600 C.3     1  UNL1        0.0323
     10 C          23.6160  -26.1010   18.6240 C.ar    1  UNL1        0.0129
     11 C          23.2130  -25.5140   17.4280 C.ar    1  UNL1        0.0199
     12 C          22.4480  -24.3280   17.0760 C.ar    1  UNL1        0.0188
     13 C          21.8130  -23.3190   17.7950 C.ar    1  UNL1        0.0012
     14 C          21.2670  -22.2480   17.1130 C.ar    1  UNL1       -0.0040
     15 C          21.3260  -22.1400   15.7220 C.ar    1  UNL1       -0.0143
     16 C          20.7990  -20.8840   15.0360 C.3     1  UNL1        0.1254
     17 C          19.9480  -20.0340   15.9700 C.3     1  UNL1        0.0166
     18 C          21.9060  -20.0420   14.4260 C.2     1  UNL1        0.3683
     19 O          21.8680  -19.6740   13.2710 O.co2   1  UNL1       -0.2453
     20 O          22.8750  -19.7460   15.2500 O.co2   1  UNL1       -0.2453
@<TRIPOS>BOND
     1     2     1    1
     2     3     2   ar
     3     4     3   ar
     4     5     4   ar
     5     6     5   ar
     6     7     6   ar
     7     8     7   ar
     8     9     8    1
     9    10     2   ar
    10    11     5   ar
    11    11    10   ar
    12    12     7   ar
    13    12    11   ar
    14    13    12   ar
    15    14    13   ar
    16    15    14   ar
    17    15     8   ar
    18    16    15    1
    19    16    17    1
    20    18    16    1
    21    19    18   ar
    22    20    18   ar
