@<TRIPOS>MOLECULE
*****
 17 18 0 0 0
SMALL
GASTEIGER

@<TRIPOS>ATOM
      1 CL         13.6460   -1.8290   21.4050 Cl      1  UNL1       -0.0823
      2 C          12.4480   -0.9540   22.3170 C.ar    1  UNL1        0.0574
      3 C          12.8570    0.0170   23.2030 C.ar    1  UNL1        0.0114
      4 C          11.8990    0.6750   23.9540 C.ar    1  UNL1        0.0006
      5 C          10.5550    0.3750   23.7910 C.ar    1  UNL1       -0.0037
      6 C          11.1110   -1.2650   22.1420 C.ar    1  UNL1        0.0076
      7 C          10.1440   -0.5830   22.8760 C.ar    1  UNL1       -0.0122
      8 C           8.6750   -0.7990   22.5920 C.3     1  UNL1        0.1135
      9 C           8.2720   -0.0190   21.3560 C.2     1  UNL1        0.2513
     10 O           8.8590    1.0050   21.0120 O.2     1  UNL1       -0.2726
     11 N           7.1960   -0.5220   20.6780 N.am    1  UNL1       -0.1601
     12 C           6.7290    0.0220   19.4810 C.ar    1  UNL1        0.1563
     13 N           5.7360    0.9760   19.3700 N.ar    1  UNL1       -0.2943
     14 C           5.0560    1.6960   20.4450 C.3     1  UNL1        0.1333
     15 C           7.1510   -0.2640   18.2240 C.ar    1  UNL1        0.1350
     16 N           6.4340    0.4810   17.3150 N.ar    1  UNL1       -0.2209
     17 C           5.5990    1.1960   18.0410 C.ar    1  UNL1        0.1796
@<TRIPOS>BOND
     1     2     1    1
     2     3     2   ar
     3     4     3   ar
     4     5     4   ar
     5     6     2   ar
     6     7     5   ar
     7     7     6   ar
     8     8     7    1
     9     9     8    1
    10    10     9    2
    11    11     9   am
    12    12    11    1
    13    13    12   ar
    14    14    13    1
    15    15    12   ar
    16    16    15   ar
    17    17    16   ar
    18    17    13   ar
