@<TRIPOS>MOLECULE
*****
 18 19 0 0 0
SMALL
GASTEIGER

@<TRIPOS>ATOM
      1 CL         13.8930   -1.8570   21.4560 Cl      1  UNL1       -0.0823
      2 C          12.6940   -1.0220   22.4070 C.ar    1  UNL1        0.0574
      3 C          13.1010   -0.1360   23.3860 C.ar    1  UNL1        0.0114
      4 C          12.1400    0.4190   24.2190 C.ar    1  UNL1        0.0006
      5 C          10.7970    0.1410   24.0160 C.ar    1  UNL1       -0.0037
      6 C          11.3590   -1.3160   22.2020 C.ar    1  UNL1        0.0076
      7 C          10.3910   -0.7030   22.9900 C.ar    1  UNL1       -0.0122
      8 C           8.9270   -0.8940   22.6730 C.3     1  UNL1        0.1135
      9 C           8.4730   -0.0550   21.4940 C.2     1  UNL1        0.2514
     10 O           9.0710    0.9640   21.1330 O.2     1  UNL1       -0.2726
     11 N           7.3310   -0.4850   20.9260 N.am    1  UNL1       -0.1586
     12 C           6.6520    0.1310   19.8750 C.ar    1  UNL1        0.1719
     13 C           5.4440    0.8310   20.1180 C.ar    1  UNL1        0.0149
     14 C           4.8450    0.9710   21.4950 C.3     1  UNL1        0.0341
     15 N           7.2340    0.1300   18.6760 N.ar    1  UNL1       -0.1313
     16 N           6.6830    0.7920   17.6400 N.ar    1  UNL1       -0.1452
     17 C           5.5430    1.4570   17.8130 C.ar    1  UNL1        0.1220
     18 C           4.8940    1.4940   19.0320 C.ar    1  UNL1        0.0211
@<TRIPOS>BOND
     1     2     1    1
     2     3     2   ar
     3     4     3   ar
     4     5     4   ar
     5     6     2   ar
     6     7     5   ar
     7     7     6   ar
     8     8     7    1
     9     9     8    1
    10    10     9    2
    11    11     9   am
    12    12    11    1
    13    13    12   ar
    14    14    13    1
    15    15    12   ar
    16    16    15   ar
    17    17    16   ar
    18    18    13   ar
    19    18    17   ar
