@<TRIPOS>MOLECULE
*****
 8 7 0 0 0
SMALL
GASTEIGER

@<TRIPOS>ATOM
      1 C          24.1490   -2.0750   22.6700 C.3     1  UNL1        0.1682
      2 C          24.9060   -2.7990   21.5490 C.3     1  UNL1        0.2047
      3 C          23.9960   -2.9960   23.8910 C.3     1  UNL1        0.2047
      4 C          24.8630   -0.7640   23.0390 C.3     1  UNL1        0.2047
      5 N          22.7780   -1.7370   22.1600 N.3     1  UNL1       -0.1263
      6 O          26.2110   -3.1900   21.9610 O.3     1  UNL1       -0.2187
      7 O          23.1130   -2.4630   24.8660 O.3     1  UNL1       -0.2187
      8 O          24.1120    0.0250   23.9530 O.3     1  UNL1       -0.2187
@<TRIPOS>BOND
     1     2     1    1
     2     3     1    1
     3     4     1    1
     4     1     5    1
     5     6     2    1
     6     7     3    1
     7     8     4    1
