@<TRIPOS>MOLECULE
*****
 19 20 0 0 0
SMALL
GASTEIGER

@<TRIPOS>ATOM
      1 N           7.0390   -2.5170   25.9140 N.am    1  UNL1       -0.1760
      2 C           6.0760   -0.3490   26.5370 C.ar    1  UNL1        0.2108
      3 O           5.4640   -0.3110   25.3270 O.3     1  UNL1       -0.2852
      4 C           5.9490    0.6670   27.4860 C.ar    1  UNL1        0.0434
      5 C           7.8820   -3.2870   21.7810 C.3     1  UNL1        0.0939
      6 C           7.2340   -2.6970   23.0020 C.3     1  UNL1        0.0307
      7 C           6.5560   -3.9750   19.7960 C.2     1  UNL1        0.2261
      8 C           7.2580   -2.9020   19.0060 C.3     1  UNL1        0.0948
      9 C           6.6010    0.5590   28.7030 C.ar    1  UNL1        0.0034
     10 C           7.3810   -0.5420   28.9850 C.ar    1  UNL1        0.0015
     11 C           7.5180   -1.5570   28.0500 C.ar    1  UNL1        0.0198
     12 C           6.8560   -1.4700   26.8410 C.ar    1  UNL1        0.1121
     13 C           6.1300   -3.2000   25.1810 C.2     1  UNL1        0.2453
     14 C           6.7130   -3.8060   23.9180 C.3     1  UNL1        0.0820
     15 C           5.7220   -4.6750   23.1410 C.3     1  UNL1        0.0307
     16 C           6.3850   -5.2360   21.9060 C.3     1  UNL1        0.0939
     17 N           6.9310   -4.1520   21.0790 N.am    1  UNL1       -0.2795
     18 O           4.9520   -3.3320   25.4940 O.2     1  UNL1       -0.2730
     19 O           5.6910   -4.6630   19.2670 O.2     1  UNL1       -0.2749
@<TRIPOS>BOND
     1     3     2    1
     2     4     2   ar
     3     6     5    1
     4     8     7    1
     5     9     4   ar
     6    10     9   ar
     7    11    10   ar
     8    12     2   ar
     9    12     1    1
    10    12    11   ar
    11    13     1   am
    12    14    13    1
    13    14     6    1
    14    15    14    1
    15    16    15    1
    16    17     7   am
    17    17     5    1
    18    17    16    1
    19    18    13    2
    20    19     7    2
