@<TRIPOS>MOLECULE
*****
 15 17 0 0 0
SMALL
GASTEIGER

@<TRIPOS>ATOM
      1 C           2.2780  -24.9020    0.8220 C.ar    1  UNL1        0.1196
      2 C           2.0540  -23.5370    0.6930 C.ar    1  UNL1        0.1210
      3 C           4.1610  -23.2890   -0.2060 C.ar    1  UNL1        0.1511
      4 C           6.4500  -22.8300   -1.1740 C.3     1  UNL1        0.0923
      5 C           7.3100  -21.5270   -1.3850 C.3     1  UNL1        0.0256
      6 C           6.2180  -20.4230   -1.6400 C.3     1  UNL1        0.0497
      7 C           6.7560  -19.0140   -1.3690 C.3     1  UNL1        0.0362
      8 C           7.4500  -18.7250   -2.5080 C.3     1  UNL1        0.1423
      9 C           5.8010  -20.3460   -3.1920 C.3     1  UNL1        0.1438
     10 C           5.1920  -20.7670   -0.8320 C.3     1  UNL1        0.0947
     11 C           4.3890  -24.6670   -0.0810 C.ar    1  UNL1        0.1331
     12 N           3.0100  -22.7490    0.1780 N.ar    1  UNL1       -0.2259
     13 N           5.2310  -22.4170   -0.7800 N.pl3   1  UNL1       -0.2919
     14 N           3.4410  -25.4400    0.4380 N.ar    1  UNL1       -0.2378
     15 O           6.6940  -19.5370   -3.7320 O.3     1  UNL1       -0.3537
@<TRIPOS>BOND
     1     2     1   ar
     2     5     4    1
     3     6     5    1
     4     7     6    1
     5     8     7    1
     6     9     6    1
     7    10     6    1
     8    11     3   ar
     9    12     3   ar
    10    12     2   ar
    11    13     3    1
    12    13    10    1
    13    13     4    1
    14    14    11   ar
    15    14     1   ar
    16    15     9    1
    17    15     8    1
