@<TRIPOS>MOLECULE
*****
 28 31 0 0 0
SMALL
GASTEIGER

@<TRIPOS>ATOM
      1 CL         14.0310   -1.4340   20.8210 Cl      1  UNL1       -0.0823
      2 C          13.1390   -0.4740   21.9710 C.ar    1  UNL1        0.0576
      3 C          13.8230    0.4030   22.7890 C.ar    1  UNL1        0.0145
      4 C          13.1110    1.2120   23.6560 C.ar    1  UNL1        0.0374
      5 C          11.7270    1.1340   23.6820 C.ar    1  UNL1        0.1350
      6 O          11.0930    1.9600   24.5770 O.3     1  UNL1       -0.4757
      7 C           9.8410    1.4350   25.0680 C.3     1  UNL1        0.2062
      8 C           8.8780    1.1720   23.9380 C.3     1  UNL1        0.0609
      9 C          11.7620   -0.5700   22.0000 C.ar    1  UNL1        0.0106
     10 C          11.0280    0.2530   22.8520 C.ar    1  UNL1        0.0211
     11 C           9.5110    0.2210   22.8980 C.3     1  UNL1        0.1063
     12 C           8.9470    0.5080   21.5070 C.2     1  UNL1        0.2390
     13 O           9.2610    1.5010   20.8860 O.2     1  UNL1       -0.2738
     14 N           8.0090   -0.3900   20.9590 N.am    1  UNL1       -0.2064
     15 C           7.9700   -1.7700   21.2600 C.2     1  UNL1        0.2352
     16 O           8.8930   -2.3010   21.8680 O.2     1  UNL1       -0.2741
     17 C           6.8460   -2.5970   20.6670 C.3     1  UNL1        0.0860
     18 C           7.2720   -4.0160   20.3480 C.3     1  UNL1        0.0101
     19 C           7.1500    0.1160   19.9080 C.ar    1  UNL1        0.0797
     20 C           7.4850   -0.0170   18.5630 C.ar    1  UNL1        0.1141
     21 N           6.7450    0.4580   17.5520 N.ar    1  UNL1       -0.2410
     22 C           5.6280    1.1090   17.8590 C.ar    1  UNL1        0.0989
     23 C           5.1760    1.3420   19.1840 C.ar    1  UNL1        0.0204
     24 C           5.9580    0.8220   20.2550 C.ar    1  UNL1        0.0171
     25 C           4.0000    2.0750   19.4840 C.ar    1  UNL1        0.0016
     26 C           3.6140    2.2740   20.7800 C.ar    1  UNL1        0.0001
     27 C           4.3690    1.7660   21.8280 C.ar    1  UNL1        0.0000
     28 C           5.5110    1.0550   21.5830 C.ar    1  UNL1        0.0013
@<TRIPOS>BOND
     1     2     1    1
     2     3     2   ar
     3     4     3   ar
     4     5     4   ar
     5     6     5    1
     6     7     6    1
     7     8     7    1
     8     9     2   ar
     9    10     9   ar
    10    10     5   ar
    11    11     8    1
    12    11    10    1
    13    11    12    1
    14    13    12    2
    15    14    12   am
    16    15    14   am
    17    16    15    2
    18    17    15    1
    19    18    17    1
    20    19    14    1
    21    20    19   ar
    22    21    20   ar
    23    22    21   ar
    24    23    22   ar
    25    24    23   ar
    26    24    19   ar
    27    25    23   ar
    28    26    25   ar
    29    27    26   ar
    30    28    27   ar
    31    28    24   ar
