@<TRIPOS>MOLECULE
*****
 31 34 0 0 0
SMALL
GASTEIGER

@<TRIPOS>ATOM
      1 CL         14.0470   -1.5290   21.0650 Cl      1  UNL1       -0.0823
      2 C          13.0580   -0.7280   22.2560 C.ar    1  UNL1        0.0576
      3 C          13.6590    0.1020   23.1760 C.ar    1  UNL1        0.0145
      4 C          12.8740    0.7960   24.0770 C.ar    1  UNL1        0.0375
      5 C          11.6840   -0.9040   22.2150 C.ar    1  UNL1        0.0129
      6 C          10.8790   -0.1960   23.1030 C.ar    1  UNL1        0.0453
      7 C          11.4970    0.6510   24.0310 C.ar    1  UNL1        0.1372
      8 O          10.7890    1.3940   24.9420 O.3     1  UNL1       -0.4756
      9 C           9.5670    0.7700   25.3710 C.3     1  UNL1        0.2087
     10 C           8.6530    0.4400   24.2060 C.3     1  UNL1        0.0879
     11 C           9.3710   -0.3480   23.0900 C.3     1  UNL1        0.1877
     12 O           8.9980   -1.7280   22.9460 O.3     1  UNL1       -0.3428
     13 C           9.1480   -2.5720   24.0920 C.3     1  UNL1        0.1750
     14 C           8.7710    0.2820   21.7900 C.2     1  UNL1        0.2742
     15 O           9.2780    1.2670   21.2750 O.2     1  UNL1       -0.2701
     16 N           7.6600   -0.3200   21.3090 N.am    1  UNL1       -0.1754
     17 C           6.9160    0.0500   20.1600 C.ar    1  UNL1        0.0925
     18 C           7.3620   -0.1250   18.8510 C.ar    1  UNL1        0.1154
     19 N           6.7470    0.3410   17.7550 N.ar    1  UNL1       -0.2410
     20 C           5.6210    1.0130   17.9240 C.ar    1  UNL1        0.0990
     21 C           5.0220    1.2580   19.1840 C.ar    1  UNL1        0.0218
     22 C           5.6820    0.7500   20.3400 C.ar    1  UNL1        0.0185
     23 C           5.0700    0.9500   21.6050 C.ar    1  UNL1        0.0028
     24 C           3.8800    1.6030   21.7180 C.ar    1  UNL1        0.0200
     25 C           3.7970    1.9490   19.3390 C.ar    1  UNL1        0.0215
     26 C           3.2480    2.0920   20.5830 C.ar    1  UNL1        0.1236
     27 S           1.6580    2.8310   20.7250 S.O2    1  UNL1        0.0769
     28 O           1.2950    3.3530   19.4440 O.2     1  UNL1       -0.1516
     29 O           0.7960    1.8880   21.3700 O.2     1  UNL1       -0.1516
     30 N           1.7960    4.0940   21.7160 N.3     1  UNL1       -0.0762
     31 C           2.5000    5.2810   21.2480 C.3     1  UNL1        0.1362
@<TRIPOS>BOND
     1     2     1    1
     2     3     2   ar
     3     4     3   ar
     4     5     2   ar
     5     6     5   ar
     6     7     6   ar
     7     7     4   ar
     8     8     7    1
     9     9     8    1
    10    10     9    1
    11    11    10    1
    12    11     6    1
    13    11    12    1
    14    13    12    1
    15    14    11    1
    16    15    14    2
    17    16    14   am
    18    17    16    1
    19    18    17   ar
    20    19    18   ar
    21    20    19   ar
    22    21    20   ar
    23    22    21   ar
    24    22    17   ar
    25    23    22   ar
    26    24    23   ar
    27    25    21   ar
    28    26    25   ar
    29    26    24   ar
    30    27    26    1
    31    28    27    2
    32    29    27    2
    33    27    30    1
    34    31    30    1
