@<TRIPOS>MOLECULE
*****
 18 19 0 0 0
SMALL
GASTEIGER

@<TRIPOS>ATOM
      1 O           8.9660    0.5410   20.7820 O.2     1  UNL1       -0.2715
      2 C           8.1820   -0.1750   21.4000 C.2     1  UNL1        0.2620
      3 C           8.5540   -0.7590   22.7520 C.3     1  UNL1        0.1606
      4 N           9.9860   -0.6590   23.0030 N.3     1  UNL1       -0.2650
      5 C          10.2890   -0.8310   24.4410 C.3     1  UNL1        0.0725
      6 C          11.7910   -0.7140   24.7080 C.3     1  UNL1        0.0174
      7 C          10.7180   -1.6540   22.1960 C.3     1  UNL1        0.0725
      8 C          12.2200   -1.5410   22.4080 C.3     1  UNL1        0.0174
      9 C          12.5840   -1.7060   23.8720 C.3     1  UNL1        0.0028
     10 C          14.0770   -1.5990   24.1080 C.3     1  UNL1        0.0001
     11 N           6.9380   -0.4820   20.9760 N.am    1  UNL1       -0.1768
     12 C           6.3090    0.1020   19.8510 C.ar    1  UNL1        0.0886
     13 C           5.1470    0.8650   20.0330 C.ar    1  UNL1       -0.0034
     14 C           4.5070    1.0340   21.3880 C.3     1  UNL1        0.0325
     15 C           4.6140    1.4950   18.9120 C.ar    1  UNL1        0.0177
     16 C           5.2390    1.3510   17.6850 C.ar    1  UNL1        0.0987
     17 N           6.3450    0.6210   17.4970 N.ar    1  UNL1       -0.2410
     18 C           6.8620    0.0090   18.5680 C.ar    1  UNL1        0.1151
@<TRIPOS>BOND
     1     2     1    2
     2     3     2    1
     3     4     3    1
     4     5     4    1
     5     6     5    1
     6     7     4    1
     7     8     7    1
     8     9     8    1
     9     9     6    1
    10     9    10    1
    11    11     2   am
    12    12    11    1
    13    13    12   ar
    14    14    13    1
    15    15    13   ar
    16    16    15   ar
    17    17    16   ar
    18    18    17   ar
    19    18    12   ar
