@<TRIPOS>MOLECULE
*****
 51 51 0 0 0
SMALL
GASTEIGER

@<TRIPOS>ATOM
      1 C         -17.2930   10.2230   38.4480 C.3     1  UNL1        0.0559
      2 C         -17.9600   10.7870   39.4770 C.3     1  UNL1        0.1410
      3 C         -17.4360   11.8660   40.4010 C.3     1  UNL1        0.0343
      4 O         -19.1460   10.2850   39.5320 O.3     1  UNL1       -0.2687
      5 N         -19.1940    9.3590   38.5430 N.3     1  UNL1       -0.0810
      6 C         -18.0980    9.3260   37.8630 C.3     1  UNL1        0.1526
      7 C         -17.8170    8.4200   36.6820 C.3     1  UNL1        0.2442
      8 O         -17.1290    8.7960   35.8030 O.3     1  UNL1       -0.2020
      9 N         -18.3490    7.0970   36.6780 N.3     1  UNL1       -0.1853
     10 C         -18.1050    6.2030   35.6200 C.3     1  UNL1        0.1226
     11 C         -19.0420    6.6270   34.5560 C.3     1  UNL1        0.2417
     12 O         -20.0200    7.2200   34.8590 O.3     1  UNL1       -0.2021
     13 C         -18.3950    4.8520   36.1290 C.3     1  UNL1        0.0232
     14 N         -18.7410    6.3660   33.1870 N.3     1  UNL1       -0.1854
     15 C         -19.5480    6.7670   32.0900 C.3     1  UNL1        0.1225
     16 C         -19.7560    5.5390   31.2870 C.3     1  UNL1        0.2417
     17 O         -18.8590    4.8360   30.9680 O.3     1  UNL1       -0.2021
     18 C         -18.7560    7.8660   31.4260 C.3     1  UNL1        0.0201
     19 C         -19.2560    8.3570   30.1000 C.3     1  UNL1        0.0016
     20 C         -18.8030    9.0880   32.2880 C.3     1  UNL1        0.0016
     21 N         -21.0840    5.1310   30.8910 N.3     1  UNL1       -0.1854
     22 C         -21.2750    3.9630   30.1280 C.3     1  UNL1        0.1226
     23 C         -21.0450    4.3650   28.7090 C.3     1  UNL1        0.2416
     24 O         -21.6300    5.2980   28.2870 O.3     1  UNL1       -0.2021
     25 C         -22.6740    3.5470   30.2610 C.3     1  UNL1        0.0216
     26 C         -22.8640    2.8420   31.6040 C.3     1  UNL1        0.0015
     27 C         -24.2400    3.1570   32.1120 C.3     1  UNL1        0.0000
     28 C         -22.7520    1.2740   31.4680 C.3     1  UNL1        0.0000
     29 C         -19.9340    4.1280   26.5370 C.3     1  UNL1        0.0756
     30 C         -20.4120    3.0610   25.6780 C.3     1  UNL1        0.0228
     31 C         -21.4470    2.6490   24.8790 C.3     1  UNL1        0.0658
     32 C         -22.5730    3.5720   24.5010 C.3     1  UNL1        0.2690
     33 C         -18.4380    4.0980   26.4020 C.3     1  UNL1        0.0215
     34 C         -17.8380    5.1510   27.0790 C.3     1  UNL1        0.0503
     35 C         -17.9530    6.4470   26.3000 C.3     1  UNL1        0.0229
     36 C         -16.8130    7.1140   26.5860 C.3     1  UNL1        0.0914
     37 N         -15.8050    6.0120   26.7300 N.3     1  UNL1       -0.1893
     38 C         -16.3670    4.9130   26.9990 C.3     1  UNL1        0.2255
     39 O         -15.8020    3.8770   27.1510 O.3     1  UNL1       -0.2037
     40 N         -20.1350    3.6670   27.8610 N.3     1  UNL1       -0.1895
     41 O         -22.4100    4.7130   24.7340 O.3     1  UNL1       -0.1899
     42 C         -24.3100    3.7790   22.7950 C.3     1  UNL1        0.1448
     43 O         -23.7430    3.0600   23.9000 O.3     1  UNL1       -0.3285
     44 C         -25.5680    5.2020   24.5890 C.3     1  UNL1        0.0025
     45 C         -26.4120    6.2380   24.9020 C.3     1  UNL1        0.0001
     46 C         -26.9680    6.9910   23.8920 C.3     1  UNL1        0.0000
     47 C         -26.6880    6.7480   22.5760 C.3     1  UNL1        0.0001
     48 C         -25.8280    5.7340   22.2760 C.3     1  UNL1        0.0025
     49 C         -25.2830    4.9410   23.2620 C.3     1  UNL1        0.0298
     50 O         -21.8210    6.4190   24.1440 O.3     2  HOH2        0.0000
     51 O         -22.6370    7.5310   31.3380 O.3     3  HOH3        0.0000
@<TRIPOS>BOND
     1     2     1    1
     2     3     2    1
     3     4     2    1
     4     5     4    1
     5     6     5    1
     6     6     1    1
     7     7     6    1
     8     8     7    1
     9     9     7    1
    10    10     9    1
    11    11    10    1
    12    12    11    1
    13    10    13    1
    14    14    11    1
    15    15    14    1
    16    16    15    1
    17    17    16    1
    18    18    15    1
    19    18    19    1
    20    20    18    1
    21    21    16    1
    22    22    21    1
    23    23    22    1
    24    24    23    1
    25    22    25    1
    26    26    25    1
    27    26    27    1
    28    28    26    1
    29    29    30    1
    30    31    30    1
    31    32    31    1
    32    33    29    1
    33    34    33    1
    34    35    34    1
    35    36    35    1
    36    37    36    1
    37    38    34    1
    38    38    37    1
    39    39    38    1
    40    40    29    1
    41    40    23    1
    42    41    32    1
    43    43    42    1
    44    43    32    1
    45    45    44    1
    46    46    45    1
    47    47    46    1
    48    48    47    1
    49    49    44    1
    50    49    42    1
    51    49    48    1
