
     RDKit          3D

 51 51  0  0  0  0  0  0  0  0999 V2000
  -17.2930   10.2230   38.4480 C   0  0  0  0  0  0  0  0  0  0  0  0
  -17.9600   10.7870   39.4770 C   0  0  0  0  0  0  0  0  0  0  0  0
  -17.4360   11.8660   40.4010 C   0  0  0  0  0  0  0  0  0  0  0  0
  -19.1460   10.2850   39.5320 O   0  0  0  0  0  0  0  0  0  0  0  0
  -19.1940    9.3590   38.5430 N   0  0  0  0  0  0  0  0  0  0  0  0
  -18.0980    9.3260   37.8630 C   0  0  0  0  0  0  0  0  0  0  0  0
  -17.8170    8.4200   36.6820 C   0  0  0  0  0  0  0  0  0  0  0  0
  -17.1290    8.7960   35.8030 O   0  0  0  0  0  0  0  0  0  0  0  0
  -18.3490    7.0970   36.6780 N   0  0  0  0  0  0  0  0  0  0  0  0
  -18.1050    6.2030   35.6200 C   0  0  2  0  0  0  0  0  0  0  0  0
  -19.0420    6.6270   34.5560 C   0  0  0  0  0  0  0  0  0  0  0  0
  -20.0200    7.2200   34.8590 O   0  0  0  0  0  0  0  0  0  0  0  0
  -18.3950    4.8520   36.1290 C   0  0  0  0  0  0  0  0  0  0  0  0
  -18.7410    6.3660   33.1870 N   0  0  0  0  0  0  0  0  0  0  0  0
  -19.5480    6.7670   32.0900 C   0  0  2  0  0  0  0  0  0  0  0  0
  -19.7560    5.5390   31.2870 C   0  0  0  0  0  0  0  0  0  0  0  0
  -18.8590    4.8360   30.9680 O   0  0  0  0  0  0  0  0  0  0  0  0
  -18.7560    7.8660   31.4260 C   0  0  1  0  0  0  0  0  0  0  0  0
  -19.2560    8.3570   30.1000 C   0  0  0  0  0  0  0  0  0  0  0  0
  -18.8030    9.0880   32.2880 C   0  0  0  0  0  0  0  0  0  0  0  0
  -21.0840    5.1310   30.8910 N   0  0  0  0  0  0  0  0  0  0  0  0
  -21.2750    3.9630   30.1280 C   0  0  2  0  0  0  0  0  0  0  0  0
  -21.0450    4.3650   28.7090 C   0  0  0  0  0  0  0  0  0  0  0  0
  -21.6300    5.2980   28.2870 O   0  0  0  0  0  0  0  0  0  0  0  0
  -22.6740    3.5470   30.2610 C   0  0  0  0  0  0  0  0  0  0  0  0
  -22.8640    2.8420   31.6040 C   0  0  1  0  0  0  0  0  0  0  0  0
  -24.2400    3.1570   32.1120 C   0  0  0  0  0  0  0  0  0  0  0  0
  -22.7520    1.2740   31.4680 C   0  0  0  0  0  0  0  0  0  0  0  0
  -19.9340    4.1280   26.5370 C   0  0  2  0  0  0  0  0  0  0  0  0
  -20.4120    3.0610   25.6780 C   0  0  0  0  0  0  0  0  0  0  0  0
  -21.4470    2.6490   24.8790 C   0  0  0  0  0  0  0  0  0  0  0  0
  -22.5730    3.5720   24.5010 C   0  0  0  0  0  0  0  0  0  0  0  0
  -18.4380    4.0980   26.4020 C   0  0  0  0  0  0  0  0  0  0  0  0
  -17.8380    5.1510   27.0790 C   0  0  2  0  0  0  0  0  0  0  0  0
  -17.9530    6.4470   26.3000 C   0  0  0  0  0  0  0  0  0  0  0  0
  -16.8130    7.1140   26.5860 C   0  0  0  0  0  0  0  0  0  0  0  0
  -15.8050    6.0120   26.7300 N   0  0  0  0  0  0  0  0  0  0  0  0
  -16.3670    4.9130   26.9990 C   0  0  0  0  0  0  0  0  0  0  0  0
  -15.8020    3.8770   27.1510 O   0  0  0  0  0  0  0  0  0  0  0  0
  -20.1350    3.6670   27.8610 N   0  0  0  0  0  0  0  0  0  0  0  0
  -22.4100    4.7130   24.7340 O   0  0  0  0  0  0  0  0  0  0  0  0
  -24.3100    3.7790   22.7950 C   0  0  0  0  0  0  0  0  0  0  0  0
  -23.7430    3.0600   23.9000 O   0  0  0  0  0  0  0  0  0  0  0  0
  -25.5680    5.2020   24.5890 C   0  0  0  0  0  0  0  0  0  0  0  0
  -26.4120    6.2380   24.9020 C   0  0  0  0  0  0  0  0  0  0  0  0
  -26.9680    6.9910   23.8920 C   0  0  0  0  0  0  0  0  0  0  0  0
  -26.6880    6.7480   22.5760 C   0  0  0  0  0  0  0  0  0  0  0  0
  -25.8280    5.7340   22.2760 C   0  0  0  0  0  0  0  0  0  0  0  0
  -25.2830    4.9410   23.2620 C   0  0  0  0  0  0  0  0  0  0  0  0
  -21.8210    6.4190   24.1440 O   0  0  0  0  0  0  0  0  0  0  0  0
  -22.6370    7.5310   31.3380 O   0  0  0  0  0  0  0  0  0  0  0  0
  2  1  1  0
  3  2  1  0
  4  2  1  0
  5  4  1  0
  6  5  1  0
  6  1  1  0
  7  6  1  0
  8  7  1  0
  9  7  1  0
 10  9  1  0
 11 10  1  0
 12 11  1  0
 10 13  1  1
 14 11  1  0
 15 14  1  1
 16 15  1  0
 17 16  1  0
 18 15  1  0
 18 19  1  6
 20 18  1  0
 21 16  1  0
 22 21  1  0
 23 22  1  0
 24 23  1  0
 22 25  1  6
 26 25  1  0
 26 27  1  6
 28 26  1  0
 29 30  1  6
 31 30  1  0
 32 31  1  0
 33 29  1  0
 34 33  1  6
 35 34  1  0
 36 35  1  0
 37 36  1  0
 38 34  1  0
 38 37  1  0
 39 38  1  0
 40 29  1  0
 40 23  1  0
 41 32  1  0
 43 42  1  0
 43 32  1  0
 45 44  1  0
 46 45  1  0
 47 46  1  0
 48 47  1  0
 49 44  1  0
 49 42  1  0
 49 48  1  0
M  END
