@<TRIPOS>MOLECULE
*****
 22 24 0 0 0
SMALL
GASTEIGER

@<TRIPOS>ATOM
      1 O           8.9300    0.5850   21.2630 O.2     1  UNL1       -0.2726
      2 C           8.3740   -0.5000   21.4160 C.2     1  UNL1        0.2500
      3 N           7.3580   -0.9380   20.6460 N.am    1  UNL1       -0.1773
      4 C           6.6530   -0.2310   19.6550 C.ar    1  UNL1        0.0925
      5 C           5.5190    0.5410   20.0470 C.ar    1  UNL1        0.0184
      6 C           5.0670    0.6550   21.3860 C.ar    1  UNL1        0.0014
      7 C           3.9970    1.4430   21.7000 C.ar    1  UNL1        0.0000
      8 C           3.3230    2.1460   20.7140 C.ar    1  UNL1        0.0001
      9 C           3.7140    2.0640   19.4120 C.ar    1  UNL1        0.0016
     10 C           4.8200    1.2610   19.0410 C.ar    1  UNL1        0.0204
     11 C           5.2920    1.1600   17.7120 C.ar    1  UNL1        0.0989
     12 N           6.3470    0.4470   17.3500 N.ar    1  UNL1       -0.2410
     13 C           7.0000   -0.2210   18.3080 C.ar    1  UNL1        0.1154
     14 C           8.7750   -1.4310   22.5400 C.3     1  UNL1        0.1135
     15 C          10.2050   -1.1680   22.9330 C.ar    1  UNL1       -0.0124
     16 C          11.2340   -1.4080   22.0850 C.ar    1  UNL1        0.0045
     17 C          12.5330   -0.8910   22.3280 C.ar    1  UNL1        0.0423
     18 C          13.5320   -1.1170   21.4310 C.1     1  UNL1       -0.0512
     19 C          14.3890   -1.3190   20.6380 C.1     1  UNL1       -0.0092
     20 C          12.7200   -0.1240   23.5320 C.ar    1  UNL1        0.0082
     21 C          11.6860    0.0540   24.4110 C.ar    1  UNL1        0.0003
     22 C          10.4270   -0.4690   24.1280 C.ar    1  UNL1       -0.0037
@<TRIPOS>BOND
     1     2     1    2
     2     3     2   am
     3     4     3    1
     4     5     4   ar
     5     6     5   ar
     6     7     6   ar
     7     8     7   ar
     8     9     8   ar
     9    10     9   ar
    10    10     5   ar
    11    11    10   ar
    12    12    11   ar
    13    13    12   ar
    14    13     4   ar
    15    14     2    1
    16    15    14    1
    17    16    15   ar
    18    17    16   ar
    19    18    17    1
    20    19    18    3
    21    20    17   ar
    22    21    20   ar
    23    22    15   ar
    24    22    21   ar
