@<TRIPOS>MOLECULE
*****
 24 27 0 0 0
SMALL
GASTEIGER

@<TRIPOS>ATOM
      1 O          10.2650    0.4990   24.8820 O.3     1  UNL1       -0.4757
      2 C           3.9920    1.5010   21.6670 C.ar    1  UNL1        0.0000
      3 C           3.3580    2.1480   20.6250 C.ar    1  UNL1        0.0001
      4 C           3.8090    2.0140   19.3440 C.ar    1  UNL1        0.0016
      5 C           4.9510    1.2260   19.0630 C.ar    1  UNL1        0.0204
      6 O           9.1550    0.8010   21.1140 O.2     1  UNL1       -0.2726
      7 C          11.5040   -1.3260   21.9540 C.ar    1  UNL1        0.0106
      8 C           5.4930    1.0810   17.7640 C.ar    1  UNL1        0.0989
      9 C           7.2020   -0.2280   18.5080 C.ar    1  UNL1        0.1154
     10 C           6.7870   -0.1730   19.8330 C.ar    1  UNL1        0.0925
     11 C          10.5860   -0.7940   22.8530 C.ar    1  UNL1        0.0212
     12 C           8.5990   -0.2270   21.4950 C.2     1  UNL1        0.2495
     13 CL         13.9780   -1.7480   20.9790 Cl      1  UNL1       -0.0823
     14 N           7.5040   -0.7300   20.9050 N.am    1  UNL1       -0.1774
     15 C           5.0880    0.7230   21.4370 C.ar    1  UNL1        0.0014
     16 C          12.8340   -0.9780   22.0410 C.ar    1  UNL1        0.0576
     17 C          13.2860   -0.0830   22.9840 C.ar    1  UNL1        0.0145
     18 C          12.3930    0.4300   23.9070 C.ar    1  UNL1        0.0374
     19 C          11.0600    0.0520   23.8550 C.ar    1  UNL1        0.1350
     20 C           8.8650    0.6300   24.5560 C.3     1  UNL1        0.2062
     21 C           8.3070   -0.6390   23.9650 C.3     1  UNL1        0.0610
     22 C           9.0960   -1.0300   22.6980 C.3     1  UNL1        0.1074
     23 N           6.5850    0.3810   17.4900 N.ar    1  UNL1       -0.2410
     24 C           5.6120    0.5710   20.1300 C.ar    1  UNL1        0.0184
@<TRIPOS>BOND
     1     3     2   ar
     2     4     3   ar
     3     5     4   ar
     4     8     5   ar
     5    10     9   ar
     6    11     7   ar
     7    12     6    2
     8    14    12   am
     9    14    10    1
    10    15     2   ar
    11    16    13    1
    12    16     7   ar
    13    17    16   ar
    14    18    17   ar
    15    19    11   ar
    16    19     1    1
    17    19    18   ar
    18    20     1    1
    19    21    20    1
    20    22    12    1
    21    22    21    1
    22    22    11    1
    23    23     9   ar
    24    23     8   ar
    25    24    15   ar
    26    24     5   ar
    27    24    10   ar
