@<TRIPOS>MOLECULE
*****
 24 26 0 0 0
SMALL
GASTEIGER

@<TRIPOS>ATOM
      1 O           7.1230   -7.4150   30.1980 O.3     1  UNL1       -0.2022
      2 C           6.8010   -6.8080   29.1840 C.3     1  UNL1        0.2417
      3 N           7.6860   -6.6190   28.1880 N.3     1  UNL1       -0.0991
      4 N           7.4760   -5.9310   27.0100 N.3     1  UNL1       -0.1263
      5 C           5.4760   -6.2200   28.9740 C.3     1  UNL1        0.0504
      6 C           5.2090   -5.5220   27.7840 C.3     1  UNL1        0.0256
      7 C           3.9310   -4.9980   27.5700 C.3     1  UNL1        0.0017
      8 C           2.9430   -5.1680   28.5270 C.3     1  UNL1        0.0001
      9 C           3.2130   -5.8470   29.7000 C.3     1  UNL1        0.0001
     10 C           4.4750   -6.3710   29.9320 C.3     1  UNL1        0.0041
     11 C           6.2920   -5.3900   26.7960 C.3     1  UNL1        0.1405
     12 C           6.2480   -4.6360   25.4800 C.3     1  UNL1        0.2578
     13 O           5.3410   -3.8390   25.2300 O.3     1  UNL1       -0.2006
     14 N           7.2540   -4.9020   24.6220 N.3     1  UNL1       -0.1134
     15 N           7.2850   -4.2310   23.4120 N.3     1  UNL1       -0.2042
     16 C           7.8630   -3.0190   23.1850 C.3     1  UNL1        0.0743
     17 C           8.5610   -2.2240   24.2370 C.3     1  UNL1        0.0189
     18 C           6.7190   -4.7510   22.2770 C.3     1  UNL1        0.0766
     19 C           5.9950   -6.0530   22.2360 C.3     1  UNL1        0.0189
     20 C           6.9520   -3.8160   21.2740 C.3     1  UNL1        0.0479
     21 C           7.6680   -2.7340   21.8570 C.3     1  UNL1        0.0213
     22 C           6.5590   -3.8990   19.8590 C.3     1  UNL1        0.1534
     23 O           5.8080   -4.7910   19.4880 O.3     1  UNL1       -0.2231
     24 C           7.1230   -2.8790   18.8950 C.3     1  UNL1        0.0355
@<TRIPOS>BOND
     1     2     1    1
     2     3     2    1
     3     4     3    1
     4     5     2    1
     5     6     5    1
     6     7     6    1
     7     8     7    1
     8     9     8    1
     9    10     9    1
    10    10     5    1
    11    11     6    1
    12    11     4    1
    13    12    11    1
    14    13    12    1
    15    14    12    1
    16    15    14    1
    17    16    15    1
    18    17    16    1
    19    18    15    1
    20    19    18    1
    21    20    18    1
    22    21    20    1
    23    21    16    1
    24    22    20    1
    25    23    22    1
    26    24    22    1
