@<TRIPOS>MOLECULE
*****
 23 24 0 0 0
SMALL
GASTEIGER

@<TRIPOS>ATOM
      1 O           8.8900    0.9170   21.0510 O.2     1  UNL1       -0.2726
      2 C           8.3870   -0.1560   21.3620 C.2     1  UNL1        0.2500
      3 N           7.3360   -0.6940   20.7160 N.am    1  UNL1       -0.1777
      4 C           6.5950   -0.0410   19.7080 C.ar    1  UNL1        0.0885
      5 C           5.4560    0.7100   20.0560 C.ar    1  UNL1       -0.0034
      6 C           5.0000    0.8540   21.4860 C.3     1  UNL1        0.0325
      7 C           4.7950    1.3780   19.0330 C.ar    1  UNL1        0.0177
      8 C           5.2770    1.2970   17.7420 C.ar    1  UNL1        0.0987
      9 N           6.3630    0.5930   17.4000 N.ar    1  UNL1       -0.2410
     10 C           6.9970   -0.0690   18.3740 C.ar    1  UNL1        0.1151
     11 C           8.9050   -0.9790   22.5270 C.3     1  UNL1        0.1135
     12 C          10.3530   -0.6560   22.8210 C.ar    1  UNL1       -0.0124
     13 C          11.3700   -1.3740   22.2050 C.ar    1  UNL1        0.0076
     14 C          12.6710   -0.9300   22.3140 C.ar    1  UNL1        0.0571
     15 CL         13.9450   -1.8640   21.5910 Cl      1  UNL1       -0.0823
     16 C          12.9920    0.2260   22.9970 C.ar    1  UNL1        0.0088
     17 C          10.6800    0.4670   23.5730 C.ar    1  UNL1       -0.0063
     18 C          11.9870    0.9370   23.6420 C.ar    1  UNL1       -0.0000
     19 C          12.3210    2.1770   24.4380 C.3     1  UNL1        0.1415
     20 N          11.9780    3.4650   23.8450 N.am    1  UNL1       -0.2005
     21 C          10.8100    3.9560   23.4200 C.2     1  UNL1        0.2422
     22 O           9.9620    3.2500   22.8720 O.2     1  UNL1       -0.2733
     23 C          10.5850    5.4220   23.6490 C.3     1  UNL1        0.0964
@<TRIPOS>BOND
     1     2     1    2
     2     3     2   am
     3     4     3    1
     4     5     4   ar
     5     6     5    1
     6     7     5   ar
     7     8     7   ar
     8     9     8   ar
     9    10     9   ar
    10    10     4   ar
    11    11     2    1
    12    12    11    1
    13    13    12   ar
    14    14    13   ar
    15    15    14    1
    16    16    14   ar
    17    17    12   ar
    18    18    17   ar
    19    18    16   ar
    20    19    18    1
    21    20    19    1
    22    21    20   am
    23    22    21    2
    24    23    21    1
