@<TRIPOS>MOLECULE
*****
 18 19 0 0 0
SMALL
GASTEIGER

@<TRIPOS>ATOM
      1 N           6.7670   -4.2380   21.3420 N.am    1  UNL1       -0.2794
      2 C           7.0300   -3.0670   19.1890 C.3     1  UNL1        0.0948
      3 O           5.6300   -4.9420   19.5240 O.2     1  UNL1       -0.2749
      4 C           6.4220   -4.1610   20.0340 C.2     1  UNL1        0.2261
      5 C           6.8550    0.5180   28.7180 C.ar    1  UNL1        0.0001
      6 C           5.9120    1.3780   28.2040 C.ar    1  UNL1        0.0000
      7 C           5.2550    1.0560   27.0390 C.ar    1  UNL1        0.0001
      8 C           5.5360   -0.1300   26.3780 C.ar    1  UNL1        0.0046
      9 C           6.1100   -5.1660   22.2750 C.3     1  UNL1        0.0952
     10 C           5.5090   -4.4130   23.4580 C.3     1  UNL1        0.0432
     11 C           6.5740   -3.5610   24.1360 C.3     1  UNL1        0.0990
     12 C           7.1910   -2.6170   23.1140 C.3     1  UNL1        0.0432
     13 C           7.8040   -3.4200   21.9780 C.3     1  UNL1        0.0952
     14 C           6.8540   -2.3100   26.2410 C.2     1  UNL1        0.2647
     15 C           6.4810   -1.0130   26.8910 C.ar    1  UNL1        0.0550
     16 C           7.1430   -0.6700   28.0660 C.ar    1  UNL1        0.0046
     17 N           6.0440   -2.7980   25.2720 N.am    1  UNL1       -0.2033
     18 O           7.9000   -2.8790   26.5520 O.2     1  UNL1       -0.2684
@<TRIPOS>BOND
     1     4     3    2
     2     4     2    1
     3     4     1   am
     4     6     5   ar
     5     7     6   ar
     6     8     7   ar
     7     9     1    1
     8    10     9    1
     9    11    10    1
    10    12    11    1
    11    13     1    1
    12    13    12    1
    13    15    14    1
    14    15     8   ar
    15    16    15   ar
    16    16     5   ar
    17    17    14   am
    18    11    17    1
    19    18    14    2
