@<TRIPOS>MOLECULE
*****
 21 23 0 0 0
SMALL
GASTEIGER

@<TRIPOS>ATOM
      1 O           8.9680    0.7460   21.0440 O.2     1  UNL1       -0.2726
      2 C           8.4720   -0.3300   21.3560 C.2     1  UNL1        0.2500
      3 C           8.9630   -1.1200   22.5550 C.3     1  UNL1        0.1135
      4 C          10.4170   -0.8450   22.8670 C.ar    1  UNL1       -0.0122
      5 C          10.7770    0.0460   23.8690 C.ar    1  UNL1       -0.0037
      6 C          12.1000    0.4200   24.0450 C.ar    1  UNL1        0.0006
      7 C          13.0890   -0.1020   23.2250 C.ar    1  UNL1        0.0114
      8 C          11.4160   -1.4030   22.0770 C.ar    1  UNL1        0.0076
      9 C          12.7280   -1.0190   22.2600 C.ar    1  UNL1        0.0574
     10 CL         13.9530   -1.6850   21.2140 Cl      1  UNL1       -0.0823
     11 N           7.4220   -0.8770   20.7060 N.am    1  UNL1       -0.1777
     12 C           6.6460   -0.2020   19.7380 C.ar    1  UNL1        0.0882
     13 C           5.5700    0.6270   20.0960 C.ar    1  UNL1       -0.0078
     14 C           5.1010    0.6970   21.5330 C.3     1  UNL1        0.0275
     15 C           4.1510    1.8550   21.8220 C.3     1  UNL1        0.0051
     16 C           3.1450    2.0510   20.7040 C.3     1  UNL1        0.0051
     17 C           3.8550    2.3650   19.4070 C.3     1  UNL1        0.0277
     18 C           4.9340    1.3590   19.0840 C.ar    1  UNL1       -0.0057
     19 C           5.3800    1.1920   17.7920 C.ar    1  UNL1        0.0944
     20 N           6.3930    0.3950   17.4360 N.ar    1  UNL1       -0.2413
     21 C           7.0130   -0.2890   18.4000 C.ar    1  UNL1        0.1150
@<TRIPOS>BOND
     1     2     1    2
     2     3     2    1
     3     4     3    1
     4     5     4   ar
     5     6     5   ar
     6     7     6   ar
     7     8     4   ar
     8     9     8   ar
     9     9     7   ar
    10    10     9    1
    11    11     2   am
    12    12    11    1
    13    13    12   ar
    14    14    13    1
    15    15    14    1
    16    16    15    1
    17    17    16    1
    18    18    17    1
    19    18    13   ar
    20    19    18   ar
    21    20    19   ar
    22    21    20   ar
    23    21    12   ar
