@<TRIPOS>MOLECULE
*****
 27 30 0 0 0
SMALL
GASTEIGER

@<TRIPOS>ATOM
      1 O           9.1360    1.2460   20.9970 O.2     1  UNL1       -0.2701
      2 C           8.6260    0.2270   21.4530 C.2     1  UNL1        0.2742
      3 C           9.1590   -0.4520   22.7640 C.3     1  UNL1        0.1877
      4 C          10.6550   -0.3070   22.9440 C.ar    1  UNL1        0.0454
      5 C          11.5410   -0.9850   22.1120 C.ar    1  UNL1        0.0151
      6 C          12.9030   -0.8180   22.2700 C.ar    1  UNL1        0.0850
      7 CL         13.9970   -1.5370   21.1330 Cl      1  UNL1       -0.0799
      8 C          13.3840    0.0060   23.2670 C.ar    1  UNL1        0.1536
      9 F          14.7200    0.1630   23.4030 F       1  UNL1       -0.2032
     10 C          12.5450    0.6970   24.1050 C.ar    1  UNL1        0.0671
     11 C          11.1830    0.5360   23.9340 C.ar    1  UNL1        0.1394
     12 O          10.3920    1.2370   24.8100 O.3     1  UNL1       -0.4755
     13 C           9.0630    1.5070   24.3320 C.3     1  UNL1        0.2087
     14 C           8.3720    0.2330   23.8950 C.3     1  UNL1        0.0879
     15 O           8.8230   -1.8360   22.5710 O.3     1  UNL1       -0.3428
     16 C           8.9790   -2.7050   23.6990 C.3     1  UNL1        0.1750
     17 N           7.5390   -0.3670   20.9140 N.am    1  UNL1       -0.1754
     18 C           6.7760    0.0850   19.8150 C.ar    1  UNL1        0.0925
     19 C           5.6330    0.9100   20.0690 C.ar    1  UNL1        0.0184
     20 C           5.1880    1.2620   21.3700 C.ar    1  UNL1        0.0014
     21 C           4.1100    2.0840   21.5450 C.ar    1  UNL1        0.0000
     22 C           3.4230    2.5930   20.4530 C.ar    1  UNL1        0.0001
     23 C           3.8100    2.2810   19.1820 C.ar    1  UNL1        0.0016
     24 C           4.9240    1.4330   18.9530 C.ar    1  UNL1        0.0204
     25 C           5.3890    1.0970   17.6590 C.ar    1  UNL1        0.0989
     26 N           6.4410    0.3270   17.4220 N.ar    1  UNL1       -0.2410
     27 C           7.1040   -0.1590   18.4810 C.ar    1  UNL1        0.1154
@<TRIPOS>BOND
     1     2     1    2
     2     3     2    1
     3     4     3    1
     4     5     4   ar
     5     6     5   ar
     6     7     6    1
     7     8     6   ar
     8     9     8    1
     9    10     8   ar
    10    11     4   ar
    11    11    10   ar
    12    12    11    1
    13    13    12    1
    14    14    13    1
    15    14     3    1
    16     3    15    1
    17    16    15    1
    18    17     2   am
    19    18    17    1
    20    19    18   ar
    21    20    19   ar
    22    21    20   ar
    23    22    21   ar
    24    23    22   ar
    25    24    23   ar
    26    24    19   ar
    27    25    24   ar
    28    26    25   ar
    29    27    26   ar
    30    27    18   ar
