@<TRIPOS>MOLECULE
*****
 21 23 0 0 0
SMALL
GASTEIGER

@<TRIPOS>ATOM
      1 O           8.8750    1.0590   21.0580 O.2     1  UNL1       -0.2726
      2 C           8.4290   -0.0520   21.3340 C.2     1  UNL1        0.2500
      3 C           8.9520   -0.8540   22.5110 C.3     1  UNL1        0.1134
      4 C          10.3410   -0.4310   22.9340 C.ar    1  UNL1       -0.0133
      5 C          10.5350    0.4260   24.0100 C.ar    1  UNL1       -0.0038
      6 C          11.8140    0.7930   24.3960 C.ar    1  UNL1       -0.0006
      7 C          12.9100    0.3070   23.7030 C.ar    1  UNL1       -0.0043
      8 C          11.4560   -0.9110   22.2560 C.ar    1  UNL1       -0.0080
      9 C          12.7470   -0.5540   22.6260 C.ar    1  UNL1       -0.0221
     10 C          13.9380   -1.0890   21.8720 C.3     1  UNL1        0.0310
     11 N           7.4250   -0.6560   20.6560 N.am    1  UNL1       -0.1773
     12 C           6.5810   -0.1000   19.6740 C.ar    1  UNL1        0.0925
     13 C           5.4400    0.6470   20.1100 C.ar    1  UNL1        0.0184
     14 C           5.0730    0.8070   21.4720 C.ar    1  UNL1        0.0014
     15 C           3.9950    1.5650   21.8250 C.ar    1  UNL1        0.0000
     16 C           3.2280    2.2010   20.8560 C.ar    1  UNL1        0.0001
     17 C           3.5360    2.0750   19.5310 C.ar    1  UNL1        0.0016
     18 C           4.6470    1.2950   19.1200 C.ar    1  UNL1        0.0204
     19 C           5.0330    1.1480   17.7640 C.ar    1  UNL1        0.0989
     20 N           6.0890    0.4540   17.3620 N.ar    1  UNL1       -0.2410
     21 C           6.8260   -0.1530   18.3030 C.ar    1  UNL1        0.1154
@<TRIPOS>BOND
     1     2     1    2
     2     3     2    1
     3     4     3    1
     4     5     4   ar
     5     6     5   ar
     6     7     6   ar
     7     8     4   ar
     8     9     8   ar
     9     9     7   ar
    10    10     9    1
    11    11     2   am
    12    12    11    1
    13    13    12   ar
    14    14    13   ar
    15    15    14   ar
    16    16    15   ar
    17    17    16   ar
    18    18    17   ar
    19    18    13   ar
    20    19    18   ar
    21    20    19   ar
    22    21    20   ar
    23    21    12   ar
