@<TRIPOS>MOLECULE
*****
 18 19 0 0 0
SMALL
GASTEIGER

@<TRIPOS>ATOM
      1 N          14.4550   -1.8900   20.5250 N.1     1  UNL1       -0.1908
      2 C          13.7190   -1.4490   21.2790 C.1     1  UNL1        0.1004
      3 C          12.8220   -0.8860   22.2560 C.ar    1  UNL1        0.0681
      4 C          13.3240   -0.1480   23.3250 C.ar    1  UNL1        0.0103
      5 C          12.4500    0.4340   24.2280 C.ar    1  UNL1        0.0004
      6 C          11.0820    0.2780   24.0680 C.ar    1  UNL1       -0.0037
      7 C          11.4470   -1.0480   22.1030 C.ar    1  UNL1        0.0065
      8 C          10.5670   -0.4600   23.0080 C.ar    1  UNL1       -0.0124
      9 C           9.0760   -0.6020   22.8160 C.3     1  UNL1        0.1135
     10 C           8.5910    0.1040   21.5650 C.2     1  UNL1        0.2500
     11 O           9.1990    1.0530   21.0700 O.2     1  UNL1       -0.2726
     12 N           7.4380   -0.3870   21.0640 N.am    1  UNL1       -0.1773
     13 C           6.7110    0.1240   19.9710 C.ar    1  UNL1        0.0925
     14 C           7.1920   -0.0010   18.6680 C.ar    1  UNL1        0.1154
     15 N           6.6050    0.5650   17.6070 N.ar    1  UNL1       -0.2410
     16 C           5.4900    1.2730   17.8240 C.ar    1  UNL1        0.0990
     17 C           4.9250    1.4450   19.0770 C.ar    1  UNL1        0.0220
     18 C           5.5460    0.8570   20.1650 C.ar    1  UNL1        0.0198
@<TRIPOS>BOND
     1     2     1    3
     2     3     2    1
     3     4     3   ar
     4     5     4   ar
     5     6     5   ar
     6     7     3   ar
     7     8     7   ar
     8     8     6   ar
     9     9     8    1
    10    10     9    1
    11    11    10    2
    12    12    10   am
    13    13    12    1
    14    14    13   ar
    15    15    14   ar
    16    16    15   ar
    17    17    16   ar
    18    18    17   ar
    19    18    13   ar
