@<TRIPOS>MOLECULE
*****
 24 27 0 0 0
SMALL
GASTEIGER

@<TRIPOS>ATOM
      1 CL         13.7300   -2.0190   21.0650 Cl      1  UNL1       -0.0823
      2 C          12.7790   -0.8840   21.9840 C.ar    1  UNL1        0.0576
      3 C          13.4170    0.1460   22.6450 C.ar    1  UNL1        0.0145
      4 C          12.6740    1.0020   23.4390 C.ar    1  UNL1        0.0374
      5 C          11.4150   -1.0720   22.0770 C.ar    1  UNL1        0.0106
      6 C          10.6560   -0.2200   22.8770 C.ar    1  UNL1        0.0212
      7 C          11.3060    0.8050   23.5560 C.ar    1  UNL1        0.1350
      8 O          10.6360    1.6190   24.4270 O.3     1  UNL1       -0.4757
      9 C           9.7100    0.8770   25.2380 C.3     1  UNL1        0.2062
     10 C           8.6290    0.1850   24.4370 C.3     1  UNL1        0.0610
     11 C           9.1580   -0.3660   23.0680 C.3     1  UNL1        0.1074
     12 C           8.3970    0.2870   21.9130 C.2     1  UNL1        0.2495
     13 O           8.9290    1.0820   21.1400 O.2     1  UNL1       -0.2726
     14 N           7.0750   -0.0440   21.8390 N.am    1  UNL1       -0.1761
     15 C           6.1200    0.6670   21.0950 C.ar    1  UNL1        0.1055
     16 C           5.1440    1.4090   21.7320 C.ar    1  UNL1       -0.0020
     17 C           5.0520    1.5580   23.2280 C.3     1  UNL1        0.0325
     18 C           6.2400    0.5920   19.6840 C.ar    1  UNL1        0.1855
     19 N           7.0760   -0.0140   18.8550 N.ar    1  UNL1       -0.1269
     20 N           6.6920    0.3440   17.5650 N.ar    1  UNL1       -0.1251
     21 C           5.6540    1.1300   17.6570 C.ar    1  UNL1        0.2069
     22 N           5.3130    1.3220   18.9590 N.ar    1  UNL1       -0.2690
     23 C           4.3100    2.0540   19.5610 C.ar    1  UNL1        0.0827
     24 C           4.2010    2.1050   20.8970 C.ar    1  UNL1        0.0162
@<TRIPOS>BOND
     1     2     1    1
     2     3     2   ar
     3     4     3   ar
     4     5     2   ar
     5     6     5   ar
     6     7     6   ar
     7     7     4   ar
     8     8     7    1
     9     9     8    1
    10    10     9    1
    11    11    10    1
    12    11     6    1
    13    11    12    1
    14    13    12    2
    15    14    12   am
    16    15    14    1
    17    16    15   ar
    18    17    16    1
    19    18    15   ar
    20    19    18   ar
    21    20    19   ar
    22    21    20   ar
    23    22    21   ar
    24    22    18   ar
    25    23    22   ar
    26    24    23   ar
    27    24    16   ar
