@<TRIPOS>MOLECULE
*****
 21 23 0 0 0
SMALL
GASTEIGER

@<TRIPOS>ATOM
      1 O           9.3470    0.7250   21.1080 O.2     1  UNL1       -0.2726
      2 C           8.8720   -0.3490   21.4730 C.2     1  UNL1        0.2500
      3 C           7.4320   -0.7220   21.1760 C.3     1  UNL1        0.1147
      4 C           6.7770    0.0020   20.0180 C.ar    1  UNL1        0.0022
      5 C           7.2500   -0.1450   18.7260 C.ar    1  UNL1        0.0948
      6 N           6.6850    0.4060   17.6460 N.ar    1  UNL1       -0.2427
      7 C           5.5830    1.1360   17.8420 C.ar    1  UNL1        0.0985
      8 C           5.0360    1.3600   19.0890 C.ar    1  UNL1        0.0161
      9 C           5.6370    0.7990   20.2100 C.ar    1  UNL1       -0.0223
     10 C           5.0840    1.0960   21.5800 C.3     1  UNL1        0.0308
     11 N           9.5560   -1.2810   22.1870 N.am    1  UNL1       -0.1792
     12 C          10.9070   -1.3130   22.6390 C.ar    1  UNL1        0.0704
     13 C          11.2160   -1.9730   23.8530 C.ar    1  UNL1        0.0067
     14 C          10.1200   -2.5730   24.6980 C.3     1  UNL1        0.1160
     15 N          10.5710   -2.9590   26.0390 N.3     1  UNL1       -0.2129
     16 C          11.8610   -3.6780   25.9940 C.3     1  UNL1        0.0938
     17 C          12.9650   -2.7660   25.5160 C.3     1  UNL1        0.0449
     18 C          12.5620   -2.0570   24.2470 C.ar    1  UNL1       -0.0221
     19 C          13.5510   -1.4790   23.4540 C.ar    1  UNL1       -0.0044
     20 C          13.2280   -0.8290   22.2770 C.ar    1  UNL1        0.0010
     21 C          11.9130   -0.7470   21.8620 C.ar    1  UNL1        0.0163
@<TRIPOS>BOND
     1     2     1    2
     2     3     2    1
     3     4     3    1
     4     5     4   ar
     5     6     5   ar
     6     7     6   ar
     7     8     7   ar
     8     9     8   ar
     9     9     4   ar
    10    10     9    1
    11    11     2   am
    12    12    11    1
    13    13    12   ar
    14    14    13    1
    15    15    14    1
    16    16    15    1
    17    17    16    1
    18    18    17    1
    19    18    13   ar
    20    19    18   ar
    21    20    19   ar
    22    21    20   ar
    23    21    12   ar
