@<TRIPOS>MOLECULE
*****
 25 28 0 0 0
SMALL
GASTEIGER

@<TRIPOS>ATOM
      1 O           9.0560    0.9460   21.1530 O.2     1  UNL1       -0.2712
      2 C           8.5500   -0.1450   21.4250 C.2     1  UNL1        0.2644
      3 C           9.1430   -1.0360   22.5330 C.3     1  UNL1        0.1594
      4 C          10.5660   -0.5860   22.8060 C.ar    1  UNL1       -0.0020
      5 C          11.6150   -1.1650   22.0970 C.ar    1  UNL1        0.0086
      6 C          12.9150   -0.8030   22.3910 C.ar    1  UNL1        0.0574
      7 CL         14.2170   -1.5230   21.4830 Cl      1  UNL1       -0.0823
      8 C          13.2030    0.1200   23.3760 C.ar    1  UNL1        0.0111
      9 C          12.1620    0.6870   24.0860 C.ar    1  UNL1       -0.0036
     10 C          10.8360    0.3440   23.8230 C.ar    1  UNL1       -0.0230
     11 C           9.7350    0.9220   24.6840 C.3     1  UNL1        0.0434
     12 C           8.3510    0.4110   24.3180 C.3     1  UNL1        0.0775
     13 N           8.3830   -0.9600   23.7940 N.3     1  UNL1       -0.2615
     14 C           7.0480   -1.5610   23.7610 C.3     1  UNL1        0.0902
     15 N           7.4810   -0.6570   20.7710 N.am    1  UNL1       -0.1762
     16 C           6.7430   -0.0670   19.7270 C.ar    1  UNL1        0.0925
     17 C           5.6550    0.8010   20.0580 C.ar    1  UNL1        0.0184
     18 C           5.2030    1.0310   21.3840 C.ar    1  UNL1        0.0014
     19 C           4.1460    1.8610   21.6320 C.ar    1  UNL1        0.0000
     20 C           3.4910    2.5050   20.5900 C.ar    1  UNL1        0.0001
     21 C           3.8920    2.3220   19.2970 C.ar    1  UNL1        0.0016
     22 C           4.9800    1.4650   18.9950 C.ar    1  UNL1        0.0204
     23 C           5.4300    1.2210   17.6750 C.ar    1  UNL1        0.0989
     24 N           6.4330    0.4110   17.3680 N.ar    1  UNL1       -0.2410
     25 C           7.0580   -0.2110   18.3750 C.ar    1  UNL1        0.1154
@<TRIPOS>BOND
     1     2     1    2
     2     3     2    1
     3     4     3    1
     4     5     4   ar
     5     6     5   ar
     6     7     6    1
     7     8     6   ar
     8     9     8   ar
     9    10     4   ar
    10    10     9   ar
    11    11    10    1
    12    12    11    1
    13    13    12    1
    14    13     3    1
    15    14    13    1
    16    15     2   am
    17    16    15    1
    18    17    16   ar
    19    18    17   ar
    20    19    18   ar
    21    20    19   ar
    22    21    20   ar
    23    22    21   ar
    24    22    17   ar
    25    23    22   ar
    26    24    23   ar
    27    25    24   ar
    28    25    16   ar
