@<TRIPOS>MOLECULE
*****
 30 33 0 0 0
SMALL
GASTEIGER

@<TRIPOS>ATOM
      1 CL         13.9090   -1.5970   21.4260 Cl      1  UNL1       -0.0823
      2 C          12.7200   -0.9150   22.5000 C.ar    1  UNL1        0.0574
      3 C          11.3800   -1.1620   22.2650 C.ar    1  UNL1        0.0074
      4 C          13.1340   -0.1240   23.5410 C.ar    1  UNL1        0.0111
      5 C          12.1850    0.4320   24.3780 C.ar    1  UNL1       -0.0023
      6 C          10.8250    0.2070   24.1780 C.ar    1  UNL1       -0.0078
      7 C           9.8490    0.8030   25.1670 C.3     1  UNL1        0.1229
      8 N           8.4850    0.7950   24.6260 N.3     1  UNL1       -0.1401
      9 S           7.3320    1.6870   25.2890 S.O2    1  UNL1        0.1024
     10 O           6.0840    1.2670   24.7550 O.2     1  UNL1       -0.1408
     11 O           7.5560    1.7170   26.6930 O.2     1  UNL1       -0.1408
     12 N           7.6900    3.1270   24.6810 N.3     1  UNL1       -0.1424
     13 C           7.1050    3.5080   23.3920 C.3     1  UNL1        0.1161
     14 C           7.9270    4.2380   25.6090 C.3     1  UNL1        0.1161
     15 C          10.4150   -0.5910   23.0970 C.ar    1  UNL1       -0.0142
     16 C           8.9390   -0.8300   22.8190 C.3     1  UNL1        0.1182
     17 C           8.0860   -0.5000   24.0450 C.3     1  UNL1        0.1108
     18 C           8.4710   -0.0480   21.5880 C.2     1  UNL1        0.2507
     19 O           9.0540    0.9570   21.1910 O.2     1  UNL1       -0.2726
     20 N           7.3340   -0.5240   21.0210 N.am    1  UNL1       -0.1773
     21 C           6.5850    0.0280   19.9570 C.ar    1  UNL1        0.0925
     22 C           5.4390    0.8270   20.2670 C.ar    1  UNL1        0.0184
     23 C           4.9830    1.0740   21.5890 C.ar    1  UNL1        0.0014
     24 C           3.8930    1.8630   21.8200 C.ar    1  UNL1        0.0000
     25 C           3.2010    2.4450   20.7630 C.ar    1  UNL1        0.0001
     26 C           3.5960    2.2350   19.4740 C.ar    1  UNL1        0.0016
     27 C           4.7230    1.4220   19.1890 C.ar    1  UNL1        0.0204
     28 C           5.1860    1.1740   17.8720 C.ar    1  UNL1        0.0989
     29 N           6.2380    0.4230   17.5840 N.ar    1  UNL1       -0.2410
     30 C           6.9060   -0.1280   18.6070 C.ar    1  UNL1        0.1154
@<TRIPOS>BOND
     1     2     1    1
     2     3     2   ar
     3     4     2   ar
     4     5     4   ar
     5     6     5   ar
     6     7     6    1
     7     8     7    1
     8     9     8    1
     9    10     9    2
    10    11     9    2
    11     9    12    1
    12    13    12    1
    13    14    12    1
    14    15     6   ar
    15    15     3   ar
    16    16    15    1
    17    17    16    1
    18    17     8    1
    19    16    18    1
    20    19    18    2
    21    20    18   am
    22    21    20    1
    23    22    21   ar
    24    23    22   ar
    25    24    23   ar
    26    25    24   ar
    27    26    25   ar
    28    27    26   ar
    29    27    22   ar
    30    28    27   ar
    31    29    28   ar
    32    30    29   ar
    33    30    21   ar
