@<TRIPOS>MOLECULE
*****
 24 27 0 0 0
SMALL
GASTEIGER

@<TRIPOS>ATOM
      1 O           8.8760    0.6980   21.1840 O.2     1  UNL1       -0.2726
      2 C           8.4280   -0.4400   21.2790 C.2     1  UNL1        0.2501
      3 C           8.9310   -1.4110   22.3280 C.3     1  UNL1        0.1165
      4 C          10.3500   -1.0160   22.6640 C.ar    1  UNL1        0.0215
      5 C          10.6230   -0.0710   23.6550 C.ar    1  UNL1        0.1311
      6 O           9.6920    0.5400   24.4630 O.3     1  UNL1       -0.4757
      7 C          10.4260    1.4130   25.3680 C.3     1  UNL1        0.2101
      8 C          11.8860    1.4450   24.9140 C.3     1  UNL1        0.0767
      9 C          11.9180    0.3640   23.8700 C.ar    1  UNL1        0.0161
     10 C          12.9690   -0.1570   23.1250 C.ar    1  UNL1        0.0102
     11 C          11.4100   -1.5410   21.9300 C.ar    1  UNL1        0.0106
     12 C          12.6980   -1.1140   22.1730 C.ar    1  UNL1        0.0573
     13 CL         14.0130   -1.8200   21.2760 Cl      1  UNL1       -0.0823
     14 N           7.5700   -0.9580   20.3990 N.am    1  UNL1       -0.1773
     15 C           6.6360   -0.3460   19.5520 C.ar    1  UNL1        0.0925
     16 C           5.6090    0.5340   20.0260 C.ar    1  UNL1        0.0184
     17 C           5.1450    0.5560   21.3680 C.ar    1  UNL1        0.0014
     18 C           4.0280    1.2640   21.7140 C.ar    1  UNL1        0.0000
     19 C           3.3290    1.9920   20.7670 C.ar    1  UNL1        0.0001
     20 C           3.7500    2.0330   19.4710 C.ar    1  UNL1        0.0016
     21 C           4.8960    1.3060   19.0630 C.ar    1  UNL1        0.0204
     22 C           5.3020    1.2120   17.7140 C.ar    1  UNL1        0.0989
     23 N           6.2820    0.4430   17.2870 N.ar    1  UNL1       -0.2410
     24 C           6.8970   -0.3280   18.1880 C.ar    1  UNL1        0.1154
@<TRIPOS>BOND
     1     2     1    2
     2     3     2    1
     3     4     3    1
     4     5     4   ar
     5     6     5    1
     6     7     6    1
     7     8     7    1
     8     9     5   ar
     9     9     8    1
    10    10     9   ar
    11    11     4   ar
    12    12    11   ar
    13    12    10   ar
    14    13    12    1
    15    14     2   am
    16    15    14    1
    17    16    15   ar
    18    17    16   ar
    19    18    17   ar
    20    19    18   ar
    21    20    19   ar
    22    21    20   ar
    23    21    16   ar
    24    22    21   ar
    25    23    22   ar
    26    24    23   ar
    27    24    15   ar
