@<TRIPOS>MOLECULE
*****
 25 28 0 0 0
SMALL
GASTEIGER

@<TRIPOS>ATOM
      1 CL         14.1300   -1.5790   21.1420 Cl      1  UNL1       -0.0823
      2 C          13.0640   -0.6930   22.1980 C.ar    1  UNL1        0.0576
      3 C          13.5860    0.2860   23.0160 C.ar    1  UNL1        0.0145
      4 C          12.7290    1.0560   23.7820 C.ar    1  UNL1        0.0374
      5 C          11.7080   -0.9420   22.1380 C.ar    1  UNL1        0.0106
      6 C          10.8280   -0.1690   22.8940 C.ar    1  UNL1        0.0212
      7 C          11.3640    0.8260   23.7210 C.ar    1  UNL1        0.1350
      8 O          10.6000    1.5950   24.5680 O.3     1  UNL1       -0.4757
      9 C           9.1690    1.5450   24.3800 C.3     1  UNL1        0.2062
     10 C           8.6810    0.1450   24.1060 C.3     1  UNL1        0.0610
     11 C           9.3280   -0.3840   22.8170 C.3     1  UNL1        0.1074
     12 C           8.7890    0.3310   21.5750 C.2     1  UNL1        0.2495
     13 O           9.4800    1.0980   20.9130 O.2     1  UNL1       -0.2726
     14 N           7.4720    0.1290   21.3330 N.am    1  UNL1       -0.1774
     15 C           6.7390    0.2660   20.1390 C.ar    1  UNL1        0.0925
     16 C           7.2590    0.1300   18.8500 C.ar    1  UNL1        0.1154
     17 N           6.6650    0.5400   17.7230 N.ar    1  UNL1       -0.2410
     18 C           5.4980    1.1500   17.8370 C.ar    1  UNL1        0.0989
     19 C           5.4590    0.8930   20.2540 C.ar    1  UNL1        0.0206
     20 C           4.8230    1.1310   21.5000 C.ar    1  UNL1        0.0310
     21 C           3.6650    1.8360   21.5210 C.ar    1  UNL1        0.1402
     22 F           3.0230    1.9860   22.7120 F       1  UNL1       -0.2042
     23 C           4.8420    1.3800   19.0680 C.ar    1  UNL1        0.0206
     24 C           3.6440    2.1250   19.1770 C.ar    1  UNL1        0.0039
     25 C           3.0740    2.3550   20.3940 C.ar    1  UNL1        0.0297
@<TRIPOS>BOND
     1     2     1    1
     2     3     2   ar
     3     4     3   ar
     4     5     2   ar
     5     6     5   ar
     6     7     6   ar
     7     7     4   ar
     8     8     7    1
     9     9     8    1
    10    10     9    1
    11    11    10    1
    12    11     6    1
    13    11    12    1
    14    13    12    2
    15    14    12   am
    16    15    14    1
    17    16    15   ar
    18    17    16   ar
    19    18    17   ar
    20    19    15   ar
    21    20    19   ar
    22    21    20   ar
    23    22    21    1
    24    23    19   ar
    25    23    18   ar
    26    24    23   ar
    27    25    24   ar
    28    25    21   ar
