@<TRIPOS>MOLECULE
*****
 15 16 0 0 0
SMALL
GASTEIGER

@<TRIPOS>ATOM
      1 N          10.0420    1.4410   21.3830 N.1     1  UNL1       -0.1893
      2 C           9.8990    0.4750   21.9910 C.1     1  UNL1        0.1198
      3 O           7.4230   -5.8980   25.4390 O.3     1  UNL1       -0.3519
      4 C           9.7280   -0.6770   22.7790 C.ar    1  UNL1        0.1492
      5 C           8.8320   -4.1830   26.5030 C.3     1  UNL1        0.1230
      6 C           9.0230   -0.5760   23.9670 C.ar    1  UNL1        0.0309
      7 C           8.9480   -1.6860   24.8020 C.ar    1  UNL1        0.0184
      8 C           9.5840   -2.8930   24.4440 C.ar    1  UNL1        0.0674
      9 C          10.2570   -2.8820   23.1770 C.ar    1  UNL1        0.1141
     10 C          10.0180   -5.3960   24.6780 C.3     1  UNL1        0.0935
     11 C           9.0290   -5.8990   23.6200 C.3     1  UNL1        0.0535
     12 C           7.5640   -5.6790   24.0400 C.3     1  UNL1        0.1440
     13 C           7.4140   -4.7710   26.2810 C.3     1  UNL1        0.1635
     14 N          10.3390   -1.8220   22.3550 N.ar    1  UNL1       -0.2322
     15 N           9.6600   -4.0770   25.2700 N.pl3   1  UNL1       -0.3039
@<TRIPOS>BOND
     1     2     1    3
     2     4     2    1
     3     6     4   ar
     4     7     6   ar
     5     8     7   ar
     6     9     8   ar
     7    11    10    1
     8    12    11    1
     9    12     3    1
    10    13     3    1
    11    13     5    1
    12    14     9   ar
    13    14     4   ar
    14    15    10    1
    15    15     8    1
    16    15     5    1
