@<TRIPOS>MOLECULE
*****
 18 19 0 0 0
SMALL
GASTEIGER

@<TRIPOS>ATOM
      1 C          11.0890    0.3540   23.6740 C.ar    1  UNL1        0.0951
      2 N           6.5830    0.5850   17.3890 N.ar    1  UNL1       -0.2410
      3 C          11.4860   -1.1650   21.9000 C.ar    1  UNL1        0.0107
      4 N          12.3940    0.6120   23.8370 N.ar    1  UNL1       -0.2418
      5 C           5.5780    0.8180   20.0050 C.ar    1  UNL1       -0.0034
      6 C          12.8320   -0.9220   22.0650 C.ar    1  UNL1        0.0765
      7 C           5.0600    1.0110   21.4070 C.3     1  UNL1        0.0325
      8 C          10.5780   -0.5090   22.7200 C.ar    1  UNL1        0.0070
      9 C           4.9440    1.4250   18.9260 C.ar    1  UNL1        0.0177
     10 C           8.5730   -0.0050   21.3130 C.2     1  UNL1        0.2501
     11 N           7.4440   -0.5270   20.7990 N.am    1  UNL1       -0.1777
     12 O           9.1390    0.9730   20.8400 O.2     1  UNL1       -0.2726
     13 C           6.7370    0.0660   19.7330 C.ar    1  UNL1        0.0885
     14 C           9.0900   -0.7060   22.5540 C.3     1  UNL1        0.1150
     15 C           7.1940   -0.0180   18.4160 C.ar    1  UNL1        0.1151
     16 C          13.2580   -0.0090   23.0260 C.ar    1  UNL1        0.1102
     17 C           5.4700    1.2810   17.6560 C.ar    1  UNL1        0.0987
     18 CL         13.9820   -1.8490   21.1430 Cl      1  UNL1       -0.0806
@<TRIPOS>BOND
     1     4     1   ar
     2     6     3   ar
     3     7     5    1
     4     8     3   ar
     5     8     1   ar
     6     9     5   ar
     7    11    10   am
     8    12    10    2
     9    13    11    1
    10    13     5   ar
    11    14    10    1
    12    14     8    1
    13    15    13   ar
    14    15     2   ar
    15    16     6   ar
    16    16     4   ar
    17    17     9   ar
    18    17     2   ar
    19    18     6    1
