@<TRIPOS>MOLECULE
*****
 24 27 0 0 0
SMALL
GASTEIGER

@<TRIPOS>ATOM
      1 O           9.5430    0.6080   21.0440 O.2     1  UNL1       -0.2726
      2 C           8.8390   -0.2250   21.6090 C.2     1  UNL1        0.2495
      3 C           9.3740   -1.1090   22.7390 C.3     1  UNL1        0.1074
      4 C           8.6730   -0.8520   24.0900 C.3     1  UNL1        0.0610
      5 C           9.0910    0.4850   24.6480 C.3     1  UNL1        0.2062
      6 O          10.5140    0.5770   24.8440 O.3     1  UNL1       -0.4757
      7 C          12.5870    0.6400   23.7740 C.ar    1  UNL1        0.0374
      8 C          11.2870    0.1570   23.7900 C.ar    1  UNL1        0.1350
      9 C          10.8500   -0.7850   22.8560 C.ar    1  UNL1        0.0212
     10 C          11.7810   -1.3050   21.9620 C.ar    1  UNL1        0.0106
     11 C          13.4840    0.1480   22.8450 C.ar    1  UNL1        0.0145
     12 C          13.0750   -0.8330   21.9710 C.ar    1  UNL1        0.0576
     13 CL         14.2290   -1.5320   20.8850 Cl      1  UNL1       -0.0823
     14 N           7.5230   -0.3690   21.3510 N.am    1  UNL1       -0.1774
     15 C           6.8020   -0.1030   20.1740 C.ar    1  UNL1        0.0926
     16 C           7.3180   -0.1680   18.8820 C.ar    1  UNL1        0.1154
     17 C           5.5690    0.9450   17.9430 C.ar    1  UNL1        0.1005
     18 C           4.9210    1.1130   19.1890 C.ar    1  UNL1        0.0396
     19 N           6.7260    0.3210   17.7870 N.ar    1  UNL1       -0.2409
     20 C           3.7320    1.8530   19.3940 C.ar    1  UNL1        0.1004
     21 C           3.7590    1.4770   21.6450 C.ar    1  UNL1        0.0989
     22 C           4.9110    0.7500   21.5860 C.ar    1  UNL1        0.0221
     23 N           3.1630    2.0320   20.5810 N.ar    1  UNL1       -0.2423
     24 C           5.5410    0.5490   20.3350 C.ar    1  UNL1        0.0214
@<TRIPOS>BOND
     1     2     1    2
     2     3     2    1
     3     4     3    1
     4     5     4    1
     5     6     5    1
     6     8     6    1
     7     8     7   ar
     8     9     3    1
     9     9     8   ar
    10    10     9   ar
    11    11     7   ar
    12    12    11   ar
    13    12    10   ar
    14    13    12    1
    15    14     2   am
    16    15    14    1
    17    16    15   ar
    18    18    17   ar
    19    19    17   ar
    20    19    16   ar
    21    20    18   ar
    22    22    21   ar
    23    23    21   ar
    24    23    20   ar
    25    24    22   ar
    26    24    18   ar
    27    24    15   ar
