@<TRIPOS>MOLECULE
*****
 34 36 0 0 0
SMALL
GASTEIGER

@<TRIPOS>ATOM
      1 O           9.3580    1.2760   20.9820 O.2     1  UNL1       -0.2708
      2 C           8.3300    1.1980   21.6440 C.2     1  UNL1        0.2683
      3 N           8.0360    2.0380   22.6670 N.am    1  UNL1       -0.1778
      4 C           8.7650    3.2020   23.0310 C.ar    1  UNL1        0.0696
      5 C           8.3030    4.4610   22.6440 C.ar    1  UNL1        0.0194
      6 C           8.9950    5.5970   23.0310 C.ar    1  UNL1        0.0382
      7 C          10.1260    5.4820   23.8260 C.ar    1  UNL1        0.1385
      8 O          10.7340    6.6480   24.2250 O.3     1  UNL1       -0.4714
      9 C          11.8840    6.5700   25.0760 C.3     1  UNL1        0.2525
     10 C          10.5940    4.2330   24.2050 C.ar    1  UNL1        0.0339
     11 C           9.9350    3.0760   23.8090 C.ar    1  UNL1       -0.0035
     12 C          10.4990    1.7370   24.2050 C.3     1  UNL1        0.0325
     13 C           7.2590    0.1510   21.2930 C.3     1  UNL1        0.1821
     14 C           6.5980    0.4440   19.9530 C.ar    1  UNL1        0.0241
     15 C           5.3830    1.1110   19.8860 C.ar    1  UNL1        0.0010
     16 C           4.8290    1.4260   18.6590 C.ar    1  UNL1        0.0204
     17 C           5.5100    1.0470   17.5170 C.ar    1  UNL1        0.0989
     18 N           6.6810    0.4010   17.5410 N.ar    1  UNL1       -0.2426
     19 C           7.1980    0.1150   18.7430 C.ar    1  UNL1        0.0967
     20 N           7.5440   -1.2870   21.5710 N.am    1  UNL1       -0.2480
     21 C           6.7220   -2.3110   21.1880 C.2     1  UNL1        0.2299
     22 O           5.6720   -2.1080   20.6070 O.2     1  UNL1       -0.2745
     23 C           7.1420   -3.7270   21.4900 C.3     1  UNL1        0.0857
     24 C           7.1530   -4.5670   20.2390 C.3     1  UNL1        0.0101
     25 C           8.7350   -1.5260   22.3420 C.ar    1  UNL1        0.0545
     26 C           8.6930   -1.4900   23.7340 C.ar    1  UNL1        0.0147
     27 C           9.8630   -1.5940   24.4650 C.ar    1  UNL1       -0.0007
     28 C          11.0970   -1.7110   23.8380 C.ar    1  UNL1        0.0046
     29 C          11.1240   -1.8090   22.4530 C.ar    1  UNL1       -0.0007
     30 C           9.9600   -1.7200   21.7070 C.ar    1  UNL1        0.0147
     31 C          12.3770   -1.5360   24.6220 C.3     1  UNL1        0.1376
     32 C          13.3320   -0.5660   23.9620 C.3     1  UNL1        0.0370
     33 O          13.1260   -2.7400   24.6670 O.3     1  UNL1       -0.3492
     34 C          12.9700   -3.4330   25.8960 C.3     1  UNL1        0.1745
@<TRIPOS>BOND
     1     2     1    2
     2     3     2   am
     3     4     3    1
     4     5     4   ar
     5     6     5   ar
     6     7     6   ar
     7     8     7    1
     8     9     8    1
     9    10     7   ar
    10    11    10   ar
    11    11     4   ar
    12    12    11    1
    13    13     2    1
    14    14    13    1
    15    15    14   ar
    16    16    15   ar
    17    17    16   ar
    18    18    17   ar
    19    19    18   ar
    20    19    14   ar
    21    20    13    1
    22    21    20   am
    23    22    21    2
    24    23    21    1
    25    24    23    1
    26    25    20    1
    27    26    25   ar
    28    27    26   ar
    29    28    27   ar
    30    29    28   ar
    31    30    25   ar
    32    30    29   ar
    33    31    28    1
    34    31    32    1
    35    33    31    1
    36    34    33    1
