@<TRIPOS>MOLECULE
*****
 28 32 0 0 0
SMALL
GASTEIGER

@<TRIPOS>ATOM
      1 CL         13.1910   -2.8630   20.8040 Cl      1  UNL1       -0.0823
      2 C          12.4430   -1.7590   21.9240 C.ar    1  UNL1        0.0576
      3 C          13.2400   -1.0170   22.7660 C.ar    1  UNL1        0.0145
      4 C          12.6520   -0.1240   23.6410 C.ar    1  UNL1        0.0375
      5 C          11.0660   -1.6350   21.9230 C.ar    1  UNL1        0.0121
      6 C          10.4560   -0.7300   22.7880 C.ar    1  UNL1        0.0372
      7 C          11.2730    0.0090   23.6530 C.ar    1  UNL1        0.1365
      8 O          10.7730    0.8680   24.6020 O.3     1  UNL1       -0.4756
      9 C           9.4460    1.3670   24.3500 C.3     1  UNL1        0.2079
     10 C           8.4760    0.2550   24.0130 C.3     1  UNL1        0.0789
     11 C           8.9360   -0.5280   22.7680 C.3     1  UNL1        0.1565
     12 N           8.1440   -1.7610   22.6040 N.am    1  UNL1       -0.2532
     13 C           8.2020   -2.8890   23.5300 C.3     1  UNL1        0.1171
     14 C           8.4620    0.2610   21.5180 C.2     1  UNL1        0.2566
     15 O           8.8720    1.3400   21.1340 O.2     1  UNL1       -0.2720
     16 N           7.4780   -0.5130   20.8910 N.am    1  UNL1       -0.1892
     17 C           7.3020   -1.7390   21.5310 C.2     1  UNL1        0.3174
     18 O           6.5420   -2.6290   21.1960 O.2     1  UNL1       -0.2516
     19 C           6.6700   -0.0400   19.7920 C.ar    1  UNL1        0.0813
     20 C           5.5360    0.7780   20.0630 C.ar    1  UNL1        0.0172
     21 C           5.0370    1.0520   21.3630 C.ar    1  UNL1        0.0013
     22 C           3.9460    1.8540   21.5420 C.ar    1  UNL1        0.0000
     23 C           3.2980    2.4220   20.4520 C.ar    1  UNL1        0.0001
     24 C           3.7370    2.1880   19.1810 C.ar    1  UNL1        0.0016
     25 C           4.8660    1.3620   18.9500 C.ar    1  UNL1        0.0204
     26 C           5.3800    1.0950   17.6570 C.ar    1  UNL1        0.0989
     27 N           6.4470    0.3420   17.4180 N.ar    1  UNL1       -0.2410
     28 C           7.0660   -0.2100   18.4710 C.ar    1  UNL1        0.1142
@<TRIPOS>BOND
     1     2     1    1
     2     3     2   ar
     3     4     3   ar
     4     5     2   ar
     5     6     5   ar
     6     7     6   ar
     7     7     4   ar
     8     8     7    1
     9     9     8    1
    10    10     9    1
    11    11    10    1
    12    11     6    1
    13    12    11    1
    14    13    12    1
    15    14    11    1
    16    15    14    2
    17    16    14   am
    18    17    16   am
    19    17    12   am
    20    18    17    2
    21    19    16    1
    22    20    19   ar
    23    21    20   ar
    24    22    21   ar
    25    23    22   ar
    26    24    23   ar
    27    25    24   ar
    28    25    20   ar
    29    26    25   ar
    30    27    26   ar
    31    28    27   ar
    32    28    19   ar
