
     RDKit          3D

 28 32  0  0  0  0  0  0  0  0999 V2000
   13.1910   -2.8630   20.8040 Cl  0  0  0  0  0  0  0  0  0  0  0  0
   12.4430   -1.7590   21.9240 C   0  0  0  0  0  0  0  0  0  0  0  0
   13.2400   -1.0170   22.7660 C   0  0  0  0  0  0  0  0  0  0  0  0
   12.6520   -0.1240   23.6410 C   0  0  0  0  0  0  0  0  0  0  0  0
   11.0660   -1.6350   21.9230 C   0  0  0  0  0  0  0  0  0  0  0  0
   10.4560   -0.7300   22.7880 C   0  0  0  0  0  0  0  0  0  0  0  0
   11.2730    0.0090   23.6530 C   0  0  0  0  0  0  0  0  0  0  0  0
   10.7730    0.8680   24.6020 O   0  0  0  0  0  0  0  0  0  0  0  0
    9.4460    1.3670   24.3500 C   0  0  0  0  0  0  0  0  0  0  0  0
    8.4760    0.2550   24.0130 C   0  0  0  0  0  0  0  0  0  0  0  0
    8.9360   -0.5280   22.7680 C   0  0  2  0  0  0  0  0  0  0  0  0
    8.1440   -1.7610   22.6040 N   0  0  0  0  0  0  0  0  0  0  0  0
    8.2020   -2.8890   23.5300 C   0  0  0  0  0  0  0  0  0  0  0  0
    8.4620    0.2610   21.5180 C   0  0  0  0  0  0  0  0  0  0  0  0
    8.8720    1.3400   21.1340 O   0  0  0  0  0  0  0  0  0  0  0  0
    7.4780   -0.5130   20.8910 N   0  0  0  0  0  0  0  0  0  0  0  0
    7.3020   -1.7390   21.5310 C   0  0  0  0  0  0  0  0  0  0  0  0
    6.5420   -2.6290   21.1960 O   0  0  0  0  0  0  0  0  0  0  0  0
    6.6700   -0.0400   19.7920 C   0  0  0  0  0  0  0  0  0  0  0  0
    5.5360    0.7780   20.0630 C   0  0  0  0  0  0  0  0  0  0  0  0
    5.0370    1.0520   21.3630 C   0  0  0  0  0  0  0  0  0  0  0  0
    3.9460    1.8540   21.5420 C   0  0  0  0  0  0  0  0  0  0  0  0
    3.2980    2.4220   20.4520 C   0  0  0  0  0  0  0  0  0  0  0  0
    3.7370    2.1880   19.1810 C   0  0  0  0  0  0  0  0  0  0  0  0
    4.8660    1.3620   18.9500 C   0  0  0  0  0  0  0  0  0  0  0  0
    5.3800    1.0950   17.6570 C   0  0  0  0  0  0  0  0  0  0  0  0
    6.4470    0.3420   17.4180 N   0  0  0  0  0  0  0  0  0  0  0  0
    7.0660   -0.2100   18.4710 C   0  0  0  0  0  0  0  0  0  0  0  0
  2  1  1  0
  3  2  2  0
  4  3  1  0
  5  2  1  0
  6  5  2  0
  7  6  1  0
  7  4  2  0
  8  7  1  0
  9  8  1  0
 10  9  1  0
 11 10  1  1
 11  6  1  0
 12 11  1  0
 13 12  1  0
 14 11  1  0
 15 14  2  0
 16 14  1  0
 17 16  1  0
 17 12  1  0
 18 17  2  0
 19 16  1  0
 20 19  1  0
 21 20  2  0
 22 21  1  0
 23 22  2  0
 24 23  1  0
 25 24  2  0
 25 20  1  0
 26 25  1  0
 27 26  2  0
 28 27  1  0
 28 19  2  0
M  END
