@<TRIPOS>MOLECULE
*****
 17 18 0 0 0
SMALL
GASTEIGER

@<TRIPOS>ATOM
      1 O           9.3050    1.0200   21.0400 O.2     1  UNL1       -0.2680
      2 C           8.7830    0.0150   21.5070 C.2     1  UNL1        0.2690
      3 C           7.3330   -0.2460   21.3530 C.2     1  UNL1        0.0569
      4 C           6.6840    0.2230   20.1000 C.ar    1  UNL1        0.0236
      5 C           7.2550   -0.0060   18.8510 C.ar    1  UNL1        0.0990
      6 N           6.7310    0.4380   17.7060 N.ar    1  UNL1       -0.2423
      7 C           5.5930    1.1390   17.7770 C.ar    1  UNL1        0.0989
      8 C           4.9450    1.4150   18.9640 C.ar    1  UNL1        0.0207
      9 C           5.5000    0.9470   20.1370 C.ar    1  UNL1        0.0033
     10 C           6.6430   -0.8360   22.3210 C.2     1  UNL1        0.0048
     11 N           9.4740   -0.9060   22.1940 N.am    1  UNL1       -0.1754
     12 C          10.8170   -0.7820   22.6000 C.ar    1  UNL1        0.0737
     13 C          11.7940   -1.6690   22.1770 C.ar    1  UNL1        0.0166
     14 C          13.1310   -1.3500   22.3390 C.ar    1  UNL1        0.0013
     15 C          13.4970   -0.1650   22.9420 C.ar    1  UNL1        0.0001
     16 C          12.5320    0.6910   23.4120 C.ar    1  UNL1        0.0013
     17 C          11.1900    0.3880   23.2520 C.ar    1  UNL1        0.0166
@<TRIPOS>BOND
     1     2     1    2
     2     3     2    1
     3     4     3    1
     4     5     4   ar
     5     6     5   ar
     6     7     6   ar
     7     8     7   ar
     8     9     8   ar
     9     9     4   ar
    10    10     3    2
    11    11     2   am
    12    12    11    1
    13    13    12   ar
    14    14    13   ar
    15    15    14   ar
    16    16    15   ar
    17    17    12   ar
    18    17    16   ar
