@<TRIPOS>MOLECULE
*****
 23 24 0 0 0
SMALL
GASTEIGER

@<TRIPOS>ATOM
      1 S           8.2390   -4.7220   26.2860 S.O2    1  UNL1        0.0592
      2 N           8.1650   -4.8190   24.6690 N.3     1  UNL1       -0.0820
      3 N           6.8830    0.3640   17.7170 N.ar    1  UNL1       -0.2410
      4 C           8.1110   -3.6240   23.8100 C.3     1  UNL1        0.1159
      5 C          12.0900   -1.3550   22.0180 C.ar    1  UNL1       -0.0038
      6 O           7.5470   -5.8620   26.8010 O.2     1  UNL1       -0.1561
      7 C           5.7860    0.9230   18.2480 C.ar    1  UNL1        0.0990
      8 C           9.3650   -2.7610   23.8700 C.3     1  UNL1        0.0343
      9 C           6.4100    0.3080   20.4590 C.ar    1  UNL1        0.0198
     10 C           7.5560   -0.2850   19.9400 C.ar    1  UNL1        0.0925
     11 C           8.5580   -1.1440   22.0810 C.2     1  UNL1        0.2493
     12 C          10.9460   -1.1710   22.7860 C.ar    1  UNL1       -0.0138
     13 C          13.1980    0.4320   23.1730 C.ar    1  UNL1       -0.0000
     14 C           7.7430   -0.2260   18.5570 C.ar    1  UNL1        0.1154
     15 C          13.2090   -0.5570   22.2090 C.ar    1  UNL1       -0.0003
     16 C          12.0710    0.6200   23.9500 C.ar    1  UNL1       -0.0003
     17 C           7.3560   -3.2890   26.7750 C.3     1  UNL1        0.1975
     18 N           8.5190   -0.9610   20.7350 N.am    1  UNL1       -0.1774
     19 O           9.6150   -4.5410   26.6300 O.2     1  UNL1       -0.1561
     20 O           7.7550   -0.6370   22.8650 O.2     1  UNL1       -0.2726
     21 C           5.5100    0.9190   19.6020 C.ar    1  UNL1        0.0220
     22 C           9.7100   -2.0310   22.5610 C.3     1  UNL1        0.1022
     23 C          10.9510   -0.1790   23.7600 C.ar    1  UNL1       -0.0038
@<TRIPOS>BOND
     1     2     1    1
     2     4     2    1
     3     6     1    2
     4     7     3   ar
     5     8     4    1
     6    10     9   ar
     7    12     5   ar
     8    14    10   ar
     9    14     3   ar
    10    15    13   ar
    11    15     5   ar
    12    16    13   ar
    13     1    17    1
    14    18    10    1
    15    18    11   am
    16    19     1    2
    17    20    11    2
    18    21     9   ar
    19    21     7   ar
    20    22    11    1
    21    22     8    1
    22    22    12    1
    23    23    16   ar
    24    23    12   ar
