@<TRIPOS>MOLECULE
*****
 21 23 0 0 0
SMALL
GASTEIGER

@<TRIPOS>ATOM
      1 O           8.9870    0.6670   20.9170 O.2     1  UNL1       -0.2726
      2 C           8.3800   -0.3250   21.3190 C.2     1  UNL1        0.2516
      3 C           8.8600   -1.1410   22.5040 C.3     1  UNL1        0.1328
      4 C          10.3200   -0.8810   22.7850 C.ar    1  UNL1        0.0691
      5 N          10.5870    0.1260   23.6350 N.ar    1  UNL1       -0.2476
      6 C          11.8630    0.5360   23.7300 C.ar    1  UNL1        0.0993
      7 C          12.9040   -0.0200   23.0100 C.ar    1  UNL1        0.0320
      8 C          11.3010   -1.5370   22.0600 C.ar    1  UNL1        0.0266
      9 C          12.5940   -1.0750   22.1830 C.ar    1  UNL1        0.0604
     10 CL         13.8620   -1.8750   21.2970 Cl      1  UNL1       -0.0822
     11 N           7.2420   -0.7610   20.7580 N.am    1  UNL1       -0.1773
     12 C           6.5400   -0.1470   19.7040 C.ar    1  UNL1        0.0925
     13 C           5.3850    0.6260   20.0190 C.ar    1  UNL1        0.0184
     14 C           4.8880    0.8020   21.3390 C.ar    1  UNL1        0.0014
     15 C           3.8220    1.6220   21.5820 C.ar    1  UNL1        0.0000
     16 C           3.1950    2.2940   20.5440 C.ar    1  UNL1        0.0001
     17 C           3.6370    2.1590   19.2590 C.ar    1  UNL1        0.0016
     18 C           4.7420    1.3250   18.9620 C.ar    1  UNL1        0.0204
     19 C           5.2910    1.2050   17.6640 C.ar    1  UNL1        0.0989
     20 N           6.3670    0.4870   17.3750 N.ar    1  UNL1       -0.2410
     21 C           6.9650   -0.1650   18.3790 C.ar    1  UNL1        0.1154
@<TRIPOS>BOND
     1     2     1    2
     2     3     2    1
     3     4     3    1
     4     5     4   ar
     5     6     5   ar
     6     7     6   ar
     7     8     4   ar
     8     9     8   ar
     9     9     7   ar
    10    10     9    1
    11    11     2   am
    12    12    11    1
    13    13    12   ar
    14    14    13   ar
    15    15    14   ar
    16    16    15   ar
    17    17    16   ar
    18    18    17   ar
    19    18    13   ar
    20    19    18   ar
    21    20    19   ar
    22    21    20   ar
    23    21    12   ar
