@<TRIPOS>MOLECULE
*****
 13 14 0 0 0
SMALL
GASTEIGER

@<TRIPOS>ATOM
      1 F           6.7320   22.5750   -3.8010 F       1  UNL1       -0.2042
      2 C           6.6020   22.8080   -2.4680 C.ar    1  UNL1        0.1402
      3 C           5.6110   22.1390   -1.7810 C.ar    1  UNL1        0.0312
      4 C           5.4490   22.3950   -0.4300 C.ar    1  UNL1        0.0214
      5 C           7.4580   23.7200   -1.8910 C.ar    1  UNL1        0.0309
      6 C           7.3050   23.9820   -0.5330 C.ar    1  UNL1        0.0188
      7 C           6.2960   23.3110    0.1830 C.ar    1  UNL1        0.0812
      8 N           6.3610   23.7360    1.4860 N.ar    1  UNL1       -0.2441
      9 C           7.3730   24.6490    1.6060 C.ar    1  UNL1        0.0960
     10 C           7.9850   24.8370    0.4010 C.ar    1  UNL1        0.0159
     11 C           9.1400   25.7410    0.1020 C.3     1  UNL1        0.1166
     12 N           8.6870   27.1290    0.2210 N.3     1  UNL1       -0.2117
     13 C           8.0210   27.5830   -1.0000 C.3     1  UNL1        0.1079
@<TRIPOS>BOND
     1     2     1    1
     2     3     2   ar
     3     4     3   ar
     4     5     2   ar
     5     6     5   ar
     6     7     4   ar
     7     7     6   ar
     8     8     7   ar
     9     9     8   ar
    10    10     9   ar
    11    10     6   ar
    12    11    10    1
    13    12    11    1
    14    13    12    1
