@<TRIPOS>MOLECULE
*****
 28 30 0 0 0
SMALL
GASTEIGER

@<TRIPOS>ATOM
      1 F          13.7360   -1.3080   20.8050 F       1  UNL1       -0.2042
      2 C          12.9930   -0.8740   21.8550 C.ar    1  UNL1        0.1402
      3 C          13.4600    0.1860   22.5900 C.ar    1  UNL1        0.0310
      4 C          12.7200    0.6060   23.6810 C.ar    1  UNL1        0.0226
      5 C          11.8200   -1.5240   22.1360 C.ar    1  UNL1        0.0310
      6 C          11.0800   -1.1020   23.2260 C.ar    1  UNL1        0.0226
      7 C          11.5390   -0.0480   23.9980 C.ar    1  UNL1        0.1272
      8 S          10.5800    0.5050   25.3640 S.O2    1  UNL1        0.0929
      9 O          11.3750    1.4210   26.1240 O.2     1  UNL1       -0.1483
     10 O          10.0140   -0.6450   26.0060 O.2     1  UNL1       -0.1483
     11 N           9.3550    1.3440   24.6950 N.pl3   1  UNL1       -0.0952
     12 C           9.2060    2.7020   24.2960 C.ar    1  UNL1        0.1062
     13 C          10.0110    3.7220   24.8090 C.ar    1  UNL1        0.0194
     14 C           9.8910    5.0120   24.3140 C.ar    1  UNL1        0.0015
     15 C           8.9800    5.2960   23.3150 C.ar    1  UNL1        0.0014
     16 C           8.1970    4.2890   22.7710 C.ar    1  UNL1        0.0180
     17 C           8.3260    2.9800   23.2400 C.ar    1  UNL1        0.0901
     18 N           7.7510    1.8730   22.5680 N.am    1  UNL1       -0.1754
     19 C           8.2980    1.2130   21.5150 C.2     1  UNL1        0.2805
     20 O           9.2860    1.6160   20.9070 O.2     1  UNL1       -0.2699
     21 C           7.7140   -0.1600   21.1700 C.3     1  UNL1        0.2531
     22 O           6.8190   -0.6400   22.1720 O.3     1  UNL1       -0.2082
     23 C           6.9210    0.1610   19.9120 C.ar    1  UNL1        0.0358
     24 C           7.4750    0.0410   18.6450 C.ar    1  UNL1        0.0975
     25 N           6.8730    0.4430   17.5190 N.ar    1  UNL1       -0.2426
     26 C           5.6490    0.9760   17.6330 C.ar    1  UNL1        0.0989
     27 C           4.9930    1.1170   18.8400 C.ar    1  UNL1        0.0204
     28 C           5.6430    0.6990   19.9880 C.ar    1  UNL1        0.0018
@<TRIPOS>BOND
     1     2     1    1
     2     3     2   ar
     3     4     3   ar
     4     5     2   ar
     5     6     5   ar
     6     7     6   ar
     7     7     4   ar
     8     8     7    1
     9     9     8    2
    10    10     8    2
    11     8    11    1
    12    12    11    1
    13    13    12   ar
    14    14    13   ar
    15    15    14   ar
    16    16    15   ar
    17    17    16   ar
    18    17    12   ar
    19    18    17    1
    20    19    18   am
    21    20    19    2
    22    21    19    1
    23    21    22    1
    24    23    21    1
    25    24    23   ar
    26    25    24   ar
    27    26    25   ar
    28    27    26   ar
    29    28    27   ar
    30    28    23   ar
