@<TRIPOS>MOLECULE
*****
 21 23 0 0 0
SMALL
GASTEIGER

@<TRIPOS>ATOM
      1 CL         14.2580   -1.6380   20.8060 Cl      1  UNL1       -0.0823
      2 C          13.2120   -0.7790   21.9080 C.ar    1  UNL1        0.0576
      3 C          13.7500    0.1810   22.7400 C.ar    1  UNL1        0.0145
      4 C          12.9050    0.9490   23.5220 C.ar    1  UNL1        0.0374
      5 C          11.8540   -1.0140   21.8560 C.ar    1  UNL1        0.0106
      6 C          10.9870   -0.2460   22.6280 C.ar    1  UNL1        0.0212
      7 C          11.5350    0.7350   23.4650 C.ar    1  UNL1        0.1350
      8 O          10.7800    1.5040   24.3210 O.3     1  UNL1       -0.4757
      9 C           9.3350    1.3260   24.3050 C.3     1  UNL1        0.2062
     10 C           8.8890   -0.0690   23.9410 C.3     1  UNL1        0.0610
     11 C           9.4890   -0.4810   22.5900 C.3     1  UNL1        0.1074
     12 C           8.8490    0.2310   21.3940 C.2     1  UNL1        0.2494
     13 O           9.2790    1.3000   20.9590 O.2     1  UNL1       -0.2726
     14 N           7.7870   -0.4210   20.8520 N.am    1  UNL1       -0.1777
     15 C           6.9610    0.0430   19.7980 C.ar    1  UNL1        0.0885
     16 C           5.7280    0.6480   20.1090 C.ar    1  UNL1       -0.0034
     17 C           5.2220    0.7390   21.5260 C.3     1  UNL1        0.0325
     18 C           7.3530   -0.0020   18.4560 C.ar    1  UNL1        0.1151
     19 N           6.6330    0.5150   17.4500 N.ar    1  UNL1       -0.2410
     20 C           5.4700    1.0940   17.7650 C.ar    1  UNL1        0.0987
     21 C           4.9870    1.1810   19.0560 C.ar    1  UNL1        0.0177
@<TRIPOS>BOND
     1     2     1    1
     2     3     2   ar
     3     4     3   ar
     4     5     2   ar
     5     6     5   ar
     6     7     6   ar
     7     7     4   ar
     8     8     7    1
     9     9     8    1
    10    10     9    1
    11    11    10    1
    12    11     6    1
    13    11    12    1
    14    13    12    2
    15    14    12   am
    16    15    14    1
    17    16    15   ar
    18    17    16    1
    19    18    15   ar
    20    19    18   ar
    21    20    19   ar
    22    21    20   ar
    23    21    16   ar
