@<TRIPOS>MOLECULE
*****
 7 7 0 0 0
SMALL
GASTEIGER

@<TRIPOS>ATOM
      1 C          24.6540   -7.8050    5.1700 C.3     1  UNL1        0.1989
      2 O          24.7950   -7.3020    3.8870 O.3     1  UNL1       -0.2194
      3 C          23.5800   -8.9180    5.1840 C.3     1  UNL1        0.1854
      4 C          23.7810   -6.8700    6.0370 C.3     1  UNL1        0.1854
      5 O          21.3720   -7.6080    5.4610 O.2     1  UNL1       -0.1728
      6 O          22.3690   -8.4440    7.4680 O.2     1  UNL1       -0.1728
      7 S          22.5280   -7.9970    6.1570 S.O2    1  UNL1       -0.0048
@<TRIPOS>BOND
     1     1     2    1
     2     3     1    1
     3     4     1    1
     4     7     5    2
     5     7     3    1
     6     7     6    2
     7     7     4    1
