@<TRIPOS>MOLECULE
*****
 22 24 0 0 0
SMALL
GASTEIGER

@<TRIPOS>ATOM
      1 BR          5.4710    1.0860   17.8340 Br      1  UNL1       -0.0490
      2 C           6.1650   -0.0430   19.1910 C.ar    1  UNL1        0.0344
      3 C           6.2960   -1.3920   18.9310 C.ar    1  UNL1        0.0066
      4 C           6.8650   -2.2020   19.9020 C.ar    1  UNL1        0.0308
      5 C           7.2640   -3.6480   19.8850 C.3     1  UNL1        0.2513
      6 O           6.1590   -4.5210   19.7650 O.3     1  UNL1       -0.2083
      7 C           7.8720   -3.8580   21.2630 C.2     1  UNL1        0.2645
      8 O           8.3460   -4.8900   21.6980 O.2     1  UNL1       -0.2714
      9 C           6.5570    0.5150   20.3970 C.ar    1  UNL1        0.0080
     10 C           7.1080   -0.2970   21.3740 C.ar    1  UNL1        0.0152
     11 C           7.2580   -1.6560   21.1170 C.ar    1  UNL1        0.0531
     12 N           7.8100   -2.6590   21.9280 N.am    1  UNL1       -0.2521
     13 C           8.3230   -2.4570   23.2840 C.3     1  UNL1        0.1278
     14 C           9.5230   -1.5410   23.3380 C.ar    1  UNL1        0.0320
     15 C          10.3830   -1.4170   22.2460 C.ar    1  UNL1        0.0004
     16 C          11.4280   -0.5090   22.2630 C.ar    1  UNL1       -0.0001
     17 C          11.6460    0.2720   23.3720 C.ar    1  UNL1        0.0031
     18 C          10.8280    0.1530   24.4840 C.ar    1  UNL1        0.0366
     19 C           9.7660   -0.7430   24.4600 C.ar    1  UNL1        0.1361
     20 O           8.8940   -0.9200   25.5110 O.3     1  UNL1       -0.4757
     21 C           8.6980    0.1620   26.4410 C.3     1  UNL1        0.2055
     22 C           7.9460   -0.3590   27.6040 C.3     1  UNL1        0.0512
@<TRIPOS>BOND
     1     2     1    1
     2     3     2   ar
     3     4     3   ar
     4     5     4    1
     5     5     6    1
     6     7     5    1
     7     8     7    2
     8     9     2   ar
     9    10     9   ar
    10    11    10   ar
    11    11     4   ar
    12    12    11    1
    13    12     7   am
    14    13    12    1
    15    14    13    1
    16    15    14   ar
    17    16    15   ar
    18    17    16   ar
    19    18    17   ar
    20    19    18   ar
    21    19    14   ar
    22    20    19    1
    23    21    20    1
    24    22    21    1
