@<TRIPOS>MOLECULE
*****
 19 21 0 0 0
SMALL
GASTEIGER

@<TRIPOS>ATOM
      1 C          13.8710   -1.3430   23.5990 C.3     1  UNL1        0.0897
      2 C           5.8990    0.7960   18.7620 C.ar    1  UNL1        0.1620
      3 C           4.1060    1.8690   19.6250 C.ar    1  UNL1        0.1006
      4 C           4.4730    1.5490   20.9290 C.ar    1  UNL1        0.0208
      5 C           5.6210    0.8170   21.1480 C.ar    1  UNL1        0.0044
      6 C           6.3680    0.4170   20.0350 C.ar    1  UNL1        0.0338
      7 C          11.6060   -1.9010   22.9900 C.3     1  UNL1        0.0939
      8 C          10.1520   -1.5150   23.1300 C.3     1  UNL1        0.1107
      9 C          10.7980    0.8040   23.3610 C.3     1  UNL1        0.1107
     10 C          12.2480    0.4020   23.2390 C.3     1  UNL1        0.0939
     11 C           9.2040    0.1860   21.5790 C.2     1  UNL1        0.2302
     12 C           8.4460   -0.9250   20.8680 C.3     1  UNL1        0.1132
     13 C           7.5700   -0.3310   19.8170 C.ar    1  UNL1        0.0091
     14 C           7.7770   -0.3570   18.4700 C.ar    1  UNL1        0.0969
     15 N          12.4620   -0.9650   23.7210 N.3     1  UNL1       -0.2686
     16 N           9.9680   -0.1520   22.6340 N.am    1  UNL1       -0.2764
     17 N           6.7740    0.3220   17.8310 N.ar    1  UNL1       -0.2254
     18 N           4.7940    1.5180   18.5300 N.ar    1  UNL1       -0.2251
     19 O           9.1290    1.3450   21.1760 O.2     1  UNL1       -0.2745
@<TRIPOS>BOND
     1     4     3   ar
     2     5     4   ar
     3     6     5   ar
     4     6     2   ar
     5     8     7    1
     6    10     9    1
     7    12    11    1
     8    13    12    1
     9    13     6   ar
    10    14    13   ar
    11    15    10    1
    12    15     7    1
    13    15     1    1
    14    16    11   am
    15    16     9    1
    16    16     8    1
    17    17    14   ar
    18    17     2   ar
    19    18     3   ar
    20    18     2   ar
    21    19    11    2
