@<TRIPOS>MOLECULE
*****
 17 18 0 0 0
SMALL
GASTEIGER

@<TRIPOS>ATOM
      1 C          24.9020  -14.7780   24.8190 C.3     1  UNL1        0.0968
      2 C          24.0280  -15.1140   26.0320 C.2     1  UNL1        0.2461
      3 C          23.5450  -17.4390   25.1620 C.ar    1  UNL1        0.0736
      4 C          24.7980  -18.0250   25.1470 C.ar    1  UNL1        0.0197
      5 C          25.0700  -19.0580   24.2780 C.ar    1  UNL1        0.0389
      6 C          24.1000  -19.5010   23.3950 C.ar    1  UNL1        0.1488
      7 C          24.2930  -20.7060   21.2140 C.ar    1  UNL1        0.3246
      8 C          24.7820  -20.1300   19.0570 C.ar    1  UNL1        0.1053
      9 C          23.9470  -21.1480   18.5930 C.ar    1  UNL1        0.0416
     10 C          23.3050  -21.9510   19.5350 C.ar    1  UNL1        0.1053
     11 C          22.8280  -18.9410   23.4280 C.ar    1  UNL1        0.0389
     12 C          22.5460  -17.8980   24.3090 C.ar    1  UNL1        0.0197
     13 N          23.3610  -16.3920   26.1440 N.am    1  UNL1       -0.1792
     14 N          24.9400  -19.9330   20.3540 N.ar    1  UNL1       -0.1924
     15 N          23.5200  -21.7050   20.8100 N.ar    1  UNL1       -0.1924
     16 O          23.8570  -14.3140   26.8880 O.2     1  UNL1       -0.2730
     17 O          24.4820  -20.5810   22.5970 O.3     1  UNL1       -0.4223
@<TRIPOS>BOND
     1     2     1    1
     2     4     3   ar
     3     5     4   ar
     4     6     5   ar
     5     9     8   ar
     6    10     9   ar
     7    11     6   ar
     8    12    11   ar
     9    12     3   ar
    10    13     3    1
    11    13     2   am
    12    14     8   ar
    13    14     7   ar
    14    15    10   ar
    15    15     7   ar
    16    16     2    2
    17    17     7    1
    18    17     6    1
