@<TRIPOS>MOLECULE
*****
 27 30 0 0 0
SMALL
GASTEIGER

@<TRIPOS>ATOM
      1 CL         14.0680   -1.4070   21.0540 Cl      1  UNL1       -0.0823
      2 C          12.8720   -0.7250   22.1110 C.ar    1  UNL1        0.0575
      3 C          11.5610   -1.1290   21.9770 C.ar    1  UNL1        0.0088
      4 C          13.2410    0.2450   23.0170 C.ar    1  UNL1        0.0127
      5 C          12.2710    0.8310   23.8130 C.ar    1  UNL1        0.0155
      6 C          10.9380    0.4380   23.6920 C.ar    1  UNL1        0.0519
      7 N           9.9350    0.9770   24.5420 N.am    1  UNL1       -0.2409
      8 C          10.2930    1.7310   25.5770 C.2     1  UNL1        0.3467
      9 O          10.6190    1.1640   26.6330 O.2     1  UNL1       -0.2487
     10 N          10.2360    3.0590   25.4100 N.am    1  UNL1       -0.0689
     11 C          10.5710   -0.5370   22.7530 C.ar    1  UNL1        0.0009
     12 C           9.1250   -0.9200   22.5260 C.3     1  UNL1        0.1037
     13 C           8.2960   -0.6980   23.7910 C.3     1  UNL1        0.0355
     14 C           8.5070    0.7180   24.2940 C.3     1  UNL1        0.1007
     15 C           8.5960   -0.0410   21.3920 C.2     1  UNL1        0.2493
     16 O           9.0720    1.0660   21.1390 O.2     1  UNL1       -0.2726
     17 N           7.5570   -0.5730   20.7210 N.am    1  UNL1       -0.1774
     18 C           6.7770    0.0380   19.7260 C.ar    1  UNL1        0.0925
     19 C           5.6470    0.8130   20.1310 C.ar    1  UNL1        0.0184
     20 C           5.2870    1.0350   21.4870 C.ar    1  UNL1        0.0014
     21 C           4.2050    1.7990   21.8070 C.ar    1  UNL1        0.0000
     22 C           3.4240    2.3770   20.8100 C.ar    1  UNL1        0.0001
     23 C           3.7290    2.1930   19.4920 C.ar    1  UNL1        0.0016
     24 C           4.8480    1.4110   19.1160 C.ar    1  UNL1        0.0204
     25 C           5.2370    1.2100   17.7680 C.ar    1  UNL1        0.0989
     26 N           6.3040    0.5180   17.3980 N.ar    1  UNL1       -0.2410
     27 C           7.0360   -0.0560   18.3600 C.ar    1  UNL1        0.1154
@<TRIPOS>BOND
     1     2     1    1
     2     3     2   ar
     3     4     2   ar
     4     5     4   ar
     5     6     5   ar
     6     7     6    1
     7     8     7   am
     8     9     8    2
     9    10     8   am
    10    11     6   ar
    11    11     3   ar
    12    12    11    1
    13    13    12    1
    14    14    13    1
    15    14     7    1
    16    12    15    1
    17    16    15    2
    18    17    15   am
    19    18    17    1
    20    19    18   ar
    21    20    19   ar
    22    21    20   ar
    23    22    21   ar
    24    23    22   ar
    25    24    23   ar
    26    24    19   ar
    27    25    24   ar
    28    26    25   ar
    29    27    26   ar
    30    27    18   ar
