@<TRIPOS>MOLECULE
*****
 33 37 0 0 0
SMALL
GASTEIGER

@<TRIPOS>ATOM
      1 CL         14.1020   -1.5330   21.2780 Cl      1  UNL1       -0.0823
      2 C          12.9010   -0.7970   22.3010 C.ar    1  UNL1        0.0574
      3 C          11.5780   -1.1800   22.1700 C.ar    1  UNL1        0.0074
      4 C          13.2850    0.1710   23.1960 C.ar    1  UNL1        0.0111
      5 C          12.3270    0.7610   23.9960 C.ar    1  UNL1       -0.0023
      6 C          10.9800    0.4140   23.8870 C.ar    1  UNL1       -0.0078
      7 C          10.0040    1.1100   24.8100 C.3     1  UNL1        0.1229
      8 N           8.6040    0.7280   24.5860 N.3     1  UNL1       -0.1401
      9 S           7.3380    1.5960   25.0310 S.O2    1  UNL1        0.1023
     10 O           7.3710    1.7270   26.4460 O.2     1  UNL1       -0.1408
     11 O           6.1950    1.0620   24.3730 O.2     1  UNL1       -0.1408
     12 N           7.7380    3.0160   24.4110 N.3     1  UNL1       -0.1453
     13 C           7.8290    4.2390   25.2380 C.3     1  UNL1        0.0969
     14 C           7.1500    5.3230   24.4030 C.3     1  UNL1        0.0206
     15 C           7.4000    3.4020   23.0240 C.3     1  UNL1        0.0969
     16 C           6.4460    4.5650   23.2540 C.3     1  UNL1        0.0192
     17 C           6.2120    5.4140   22.0100 C.3     1  UNL1        0.0015
     18 C          10.6010   -0.5560   22.9470 C.ar    1  UNL1       -0.0142
     19 C           9.1310   -0.8750   22.7450 C.3     1  UNL1        0.1182
     20 C           8.3560   -0.6170   24.0350 C.3     1  UNL1        0.1108
     21 C           8.5620   -0.0620   21.5800 C.2     1  UNL1        0.2507
     22 O           9.0850    0.9840   21.1930 O.2     1  UNL1       -0.2726
     23 N           7.4410   -0.5820   21.0190 N.am    1  UNL1       -0.1773
     24 C           6.6910   -0.0510   19.9430 C.ar    1  UNL1        0.0925
     25 C           5.5620    0.7790   20.2340 C.ar    1  UNL1        0.0184
     26 C           5.0650    1.0070   21.5440 C.ar    1  UNL1        0.0014
     27 C           3.9730    1.8000   21.7540 C.ar    1  UNL1        0.0000
     28 C           3.3290    2.4160   20.6870 C.ar    1  UNL1        0.0001
     29 C           3.7690    2.2320   19.4070 C.ar    1  UNL1        0.0016
     30 C           4.8860    1.4000   19.1430 C.ar    1  UNL1        0.0204
     31 C           5.3600    1.1320   17.8340 C.ar    1  UNL1        0.0989
     32 N           6.3980    0.3520   17.5630 N.ar    1  UNL1       -0.2410
     33 C           7.0360   -0.2130   18.5990 C.ar    1  UNL1        0.1154
@<TRIPOS>BOND
     1     2     1    1
     2     3     2   ar
     3     4     2   ar
     4     5     4   ar
     5     6     5   ar
     6     7     6    1
     7     8     7    1
     8     9     8    1
     9    10     9    2
    10    11     9    2
    11    12     9    1
    12    13    12    1
    13    14    13    1
    14    15    12    1
    15    16    15    1
    16    16    14    1
    17    16    17    1
    18    18     6   ar
    19    18     3   ar
    20    19    18    1
    21    20    19    1
    22    20     8    1
    23    19    21    1
    24    22    21    2
    25    23    21   am
    26    24    23    1
    27    25    24   ar
    28    26    25   ar
    29    27    26   ar
    30    28    27   ar
    31    29    28   ar
    32    30    29   ar
    33    30    25   ar
    34    31    30   ar
    35    32    31   ar
    36    33    32   ar
    37    33    24   ar
