@<TRIPOS>MOLECULE
*****
 27 30 0 0 0
SMALL
GASTEIGER

@<TRIPOS>ATOM
      1 O           9.3100    1.1570   20.9420 O.2     1  UNL1       -0.2701
      2 C           8.8260    0.1630   21.4670 C.2     1  UNL1        0.2742
      3 C           9.4470   -0.3830   22.8100 C.3     1  UNL1        0.1878
      4 C          10.9610   -0.3640   22.8590 C.ar    1  UNL1        0.0489
      5 C          11.7240   -1.0460   21.9130 C.ar    1  UNL1        0.0312
      6 C          13.0950   -0.9640   21.9770 C.ar    1  UNL1        0.1424
      7 F          13.8170   -1.5390   20.9820 F       1  UNL1       -0.2041
      8 C          13.7760   -0.2710   22.9450 C.ar    1  UNL1        0.0624
      9 C          13.0190    0.4120   23.8570 C.ar    1  UNL1        0.1758
     10 F          13.6350    1.1170   24.8310 F       1  UNL1       -0.2009
     11 C          11.6350    0.3960   23.8380 C.ar    1  UNL1        0.1645
     12 O          10.9880    1.1490   24.7830 O.3     1  UNL1       -0.4733
     13 C           9.6480    0.7250   25.0590 C.3     1  UNL1        0.2088
     14 C           8.8390    0.6410   23.7840 C.3     1  UNL1        0.0879
     15 O           8.8650   -1.6040   23.2970 O.3     1  UNL1       -0.3428
     16 C           9.3160   -2.8340   22.7180 C.3     1  UNL1        0.1750
     17 N           7.7110   -0.4450   21.0040 N.am    1  UNL1       -0.1754
     18 C           6.9140   -0.0030   19.9280 C.ar    1  UNL1        0.0925
     19 C           5.7610    0.7880   20.2200 C.ar    1  UNL1        0.0184
     20 C           5.3050    1.0660   21.5360 C.ar    1  UNL1        0.0014
     21 C           4.2120    1.8580   21.7500 C.ar    1  UNL1        0.0000
     22 C           3.5220    2.4140   20.6810 C.ar    1  UNL1        0.0001
     23 C           3.9170    2.1730   19.3960 C.ar    1  UNL1        0.0016
     24 C           5.0410    1.3510   19.1290 C.ar    1  UNL1        0.0204
     25 C           5.5040    1.0720   17.8200 C.ar    1  UNL1        0.0989
     26 N           6.5660    0.3290   17.5480 N.ar    1  UNL1       -0.2410
     27 C           7.2390   -0.1910   18.5840 C.ar    1  UNL1        0.1154
@<TRIPOS>BOND
     1     2     1    2
     2     3     2    1
     3     4     3    1
     4     5     4   ar
     5     6     5   ar
     6     7     6    1
     7     8     6   ar
     8     9     8   ar
     9    10     9    1
    10    11     9   ar
    11    11     4   ar
    12    12    11    1
    13    13    12    1
    14    14    13    1
    15    14     3    1
    16     3    15    1
    17    16    15    1
    18    17     2   am
    19    18    17    1
    20    19    18   ar
    21    20    19   ar
    22    21    20   ar
    23    22    21   ar
    24    23    22   ar
    25    24    23   ar
    26    24    19   ar
    27    25    24   ar
    28    26    25   ar
    29    27    26   ar
    30    27    18   ar
