@<TRIPOS>MOLECULE
*****
 27 31 0 0 0
SMALL
GASTEIGER

@<TRIPOS>ATOM
      1 O           9.1970    1.3860   21.1180 O.2     1  UNL1       -0.2738
      2 C           8.7510    0.3330   21.5360 C.2     1  UNL1        0.2387
      3 C           9.2020   -0.4070   22.8020 C.3     1  UNL1        0.1035
      4 C           8.4980    0.2850   23.9990 C.3     1  UNL1        0.0606
      5 C           9.4610    0.6770   25.1030 C.3     1  UNL1        0.2062
      6 O          10.6190    1.3530   24.5890 O.3     1  UNL1       -0.4757
      7 C          10.7330   -0.3770   22.9000 C.ar    1  UNL1        0.0208
      8 C          11.3440    0.5450   23.7520 C.ar    1  UNL1        0.1350
      9 C          12.7220    0.6580   23.8400 C.ar    1  UNL1        0.0374
     10 C          13.5160   -0.1500   23.0500 C.ar    1  UNL1        0.0145
     11 C          11.5460   -1.2010   22.1230 C.ar    1  UNL1        0.0106
     12 C          12.9200   -1.0380   22.1760 C.ar    1  UNL1        0.0576
     13 CL         13.9070   -1.8110   20.9640 Cl      1  UNL1       -0.0823
     14 N           7.7270   -0.4170   20.9450 N.am    1  UNL1       -0.2063
     15 C           7.5420   -1.6540   21.5570 C.2     1  UNL1        0.2360
     16 O           6.6290   -2.4210   21.2880 O.2     1  UNL1       -0.2741
     17 C           8.6220   -1.8230   22.5950 C.3     1  UNL1        0.0989
     18 C           6.9070    0.0650   19.8620 C.ar    1  UNL1        0.0797
     19 C           5.8050    0.9140   20.1530 C.ar    1  UNL1        0.0171
     20 C           5.3630    1.2410   21.4620 C.ar    1  UNL1        0.0013
     21 C           4.2930    2.0690   21.6550 C.ar    1  UNL1        0.0000
     22 C           3.6150    2.6150   20.5730 C.ar    1  UNL1        0.0001
     23 C           4.0030    2.3320   19.2960 C.ar    1  UNL1        0.0016
     24 C           5.1050    1.4750   19.0500 C.ar    1  UNL1        0.0204
     25 C           5.5610    1.1510   17.7470 C.ar    1  UNL1        0.0989
     26 N           6.5930    0.3550   17.4920 N.ar    1  UNL1       -0.2410
     27 C           7.2430   -0.1740   18.5370 C.ar    1  UNL1        0.1141
@<TRIPOS>BOND
     1     2     1    2
     2     3     2    1
     3     3     4    1
     4     5     4    1
     5     6     5    1
     6     7     3    1
     7     8     7   ar
     8     8     6    1
     9     9     8   ar
    10    10     9   ar
    11    11     7   ar
    12    12    11   ar
    13    12    10   ar
    14    13    12    1
    15    14     2   am
    16    15    14   am
    17    16    15    2
    18    17    15    1
    19    17     3    1
    20    18    14    1
    21    19    18   ar
    22    20    19   ar
    23    21    20   ar
    24    22    21   ar
    25    23    22   ar
    26    24    23   ar
    27    24    19   ar
    28    25    24   ar
    29    26    25   ar
    30    27    26   ar
    31    27    18   ar
