
     RDKit          3D

 27 31  0  0  0  0  0  0  0  0999 V2000
    9.1970    1.3860   21.1180 O   0  0  0  0  0  0  0  0  0  0  0  0
    8.7510    0.3330   21.5360 C   0  0  0  0  0  0  0  0  0  0  0  0
    9.2020   -0.4070   22.8020 C   0  0  2  0  0  0  0  0  0  0  0  0
    8.4980    0.2850   23.9990 C   0  0  0  0  0  0  0  0  0  0  0  0
    9.4610    0.6770   25.1030 C   0  0  0  0  0  0  0  0  0  0  0  0
   10.6190    1.3530   24.5890 O   0  0  0  0  0  0  0  0  0  0  0  0
   10.7330   -0.3770   22.9000 C   0  0  0  0  0  0  0  0  0  0  0  0
   11.3440    0.5450   23.7520 C   0  0  0  0  0  0  0  0  0  0  0  0
   12.7220    0.6580   23.8400 C   0  0  0  0  0  0  0  0  0  0  0  0
   13.5160   -0.1500   23.0500 C   0  0  0  0  0  0  0  0  0  0  0  0
   11.5460   -1.2010   22.1230 C   0  0  0  0  0  0  0  0  0  0  0  0
   12.9200   -1.0380   22.1760 C   0  0  0  0  0  0  0  0  0  0  0  0
   13.9070   -1.8110   20.9640 Cl  0  0  0  0  0  0  0  0  0  0  0  0
    7.7270   -0.4170   20.9450 N   0  0  0  0  0  0  0  0  0  0  0  0
    7.5420   -1.6540   21.5570 C   0  0  0  0  0  0  0  0  0  0  0  0
    6.6290   -2.4210   21.2880 O   0  0  0  0  0  0  0  0  0  0  0  0
    8.6220   -1.8230   22.5950 C   0  0  0  0  0  0  0  0  0  0  0  0
    6.9070    0.0650   19.8620 C   0  0  0  0  0  0  0  0  0  0  0  0
    5.8050    0.9140   20.1530 C   0  0  0  0  0  0  0  0  0  0  0  0
    5.3630    1.2410   21.4620 C   0  0  0  0  0  0  0  0  0  0  0  0
    4.2930    2.0690   21.6550 C   0  0  0  0  0  0  0  0  0  0  0  0
    3.6150    2.6150   20.5730 C   0  0  0  0  0  0  0  0  0  0  0  0
    4.0030    2.3320   19.2960 C   0  0  0  0  0  0  0  0  0  0  0  0
    5.1050    1.4750   19.0500 C   0  0  0  0  0  0  0  0  0  0  0  0
    5.5610    1.1510   17.7470 C   0  0  0  0  0  0  0  0  0  0  0  0
    6.5930    0.3550   17.4920 N   0  0  0  0  0  0  0  0  0  0  0  0
    7.2430   -0.1740   18.5370 C   0  0  0  0  0  0  0  0  0  0  0  0
  2  1  2  0
  3  2  1  0
  3  4  1  1
  5  4  1  0
  6  5  1  0
  7  3  1  0
  8  7  2  0
  8  6  1  0
  9  8  1  0
 10  9  2  0
 11  7  1  0
 12 11  2  0
 12 10  1  0
 13 12  1  0
 14  2  1  0
 15 14  1  0
 16 15  2  0
 17 15  1  0
 17  3  1  0
 18 14  1  0
 19 18  1  0
 20 19  2  0
 21 20  1  0
 22 21  2  0
 23 22  1  0
 24 23  2  0
 24 19  1  0
 25 24  1  0
 26 25  2  0
 27 26  1  0
 27 18  2  0
M  END
