@<TRIPOS>MOLECULE
*****
 38 43 0 0 0
SMALL
GASTEIGER

@<TRIPOS>ATOM
      1 O           9.4930    1.2420   21.0740 O.2     1  UNL1       -0.2727
      2 C           8.9880    0.2560   21.5970 C.2     1  UNL1        0.2492
      3 N           7.8270   -0.2840   21.1380 N.am    1  UNL1       -0.1774
      4 C           7.0340    0.1610   20.0470 C.ar    1  UNL1        0.0925
      5 C           5.8300    0.8890   20.3200 C.ar    1  UNL1        0.0184
      6 C           5.3730    1.1960   21.6270 C.ar    1  UNL1        0.0014
      7 C           4.2440    1.9420   21.8210 C.ar    1  UNL1        0.0000
      8 C           3.5200    2.4230   20.7380 C.ar    1  UNL1        0.0001
      9 C           3.9080    2.1440   19.4600 C.ar    1  UNL1        0.0016
     10 C           5.0670    1.3650   19.2140 C.ar    1  UNL1        0.0204
     11 C           5.5310    1.0620   17.9100 C.ar    1  UNL1        0.0989
     12 N           6.6380    0.3830   17.6540 N.ar    1  UNL1       -0.2410
     13 C           7.3610   -0.0380   18.7020 C.ar    1  UNL1        0.1154
     14 C           9.6510   -0.4090   22.8280 C.3     1  UNL1        0.1046
     15 C           9.0980    0.3300   24.0720 C.3     1  UNL1        0.0607
     16 C           9.6510    1.7360   24.1850 C.3     1  UNL1        0.2062
     17 O          11.0860    1.7400   24.3180 O.3     1  UNL1       -0.4757
     18 C          11.1680   -0.1370   22.7480 C.ar    1  UNL1        0.0209
     19 C          11.7690    0.9330   23.4400 C.ar    1  UNL1        0.1350
     20 C          13.1210    1.2090   23.3200 C.ar    1  UNL1        0.0374
     21 C          13.9060    0.4170   22.5030 C.ar    1  UNL1        0.0145
     22 C          11.9850   -0.9410   21.9550 C.ar    1  UNL1        0.0106
     23 C          13.3310   -0.6430   21.8350 C.ar    1  UNL1        0.0576
     24 CL         14.3080   -1.5890   20.7460 Cl      1  UNL1       -0.0823
     25 C           9.4260   -1.9430   22.8870 C.3     1  UNL1        0.0982
     26 C           8.2950   -2.4070   23.7820 C.2     1  UNL1        0.2266
     27 O           7.2020   -1.8540   23.7680 O.2     1  UNL1       -0.2748
     28 N           8.5070   -3.5040   24.5460 N.am    1  UNL1       -0.2773
     29 C           7.3350   -4.2830   24.9800 C.3     1  UNL1        0.1009
     30 C           7.4790   -4.8230   26.4130 C.3     1  UNL1        0.0245
     31 C           8.8530   -5.4390   26.6580 C.3     1  UNL1        0.0038
     32 C           9.9580   -4.4590   26.3220 C.3     1  UNL1        0.0216
     33 C           9.8490   -4.0030   24.8820 C.3     1  UNL1        0.0936
     34 C           6.8460   -5.2850   23.9700 C.ar    1  UNL1        0.0376
     35 C           7.4540   -5.6360   22.7970 C.ar    1  UNL1        0.1210
     36 N           6.6260   -6.4600   22.1430 N.ar    1  UNL1       -0.1466
     37 N           5.4860   -6.6900   22.8320 N.ar    1  UNL1       -0.1466
     38 C           5.6290   -5.9810   23.9440 C.ar    1  UNL1        0.1210
@<TRIPOS>BOND
     1     2     1    2
     2     3     2   am
     3     4     3    1
     4     5     4   ar
     5     6     5   ar
     6     7     6   ar
     7     8     7   ar
     8     9     8   ar
     9    10     9   ar
    10    10     5   ar
    11    11    10   ar
    12    12    11   ar
    13    13    12   ar
    14    13     4   ar
    15    14     2    1
    16    15    14    1
    17    16    15    1
    18    17    16    1
    19    18    14    1
    20    19    18   ar
    21    19    17    1
    22    20    19   ar
    23    21    20   ar
    24    22    18   ar
    25    23    22   ar
    26    23    21   ar
    27    24    23    1
    28    14    25    1
    29    26    25    1
    30    27    26    2
    31    28    26   am
    32    29    28    1
    33    30    29    1
    34    31    30    1
    35    32    31    1
    36    33    32    1
    37    33    28    1
    38    29    34    1
    39    35    34   ar
    40    36    35   ar
    41    37    36   ar
    42    38    37   ar
    43    38    34   ar
