@<TRIPOS>MOLECULE
*****
 14 15 0 0 0
SMALL
GASTEIGER

@<TRIPOS>ATOM
      1 N          14.5110  -25.9520    4.2890 N.ar    1  UNL1       -0.2274
      2 C          15.9340  -25.6310    7.0170 C.3     1  UNL1        0.1766
      3 O          15.1310  -27.9120    7.7960 O.2     1  UNL1       -0.1725
      4 C          16.0750  -27.6070    5.4180 C.3     1  UNL1        0.2159
      5 C          14.8010  -27.2100    4.7270 C.ar    1  UNL1        0.1630
      6 C          13.2190  -26.0490    3.7340 C.ar    1  UNL1        0.1003
      7 C          12.3910  -25.0410    3.1910 C.ar    1  UNL1        0.0207
      8 C          11.1260  -25.4090    2.7870 C.ar    1  UNL1        0.0016
      9 C          10.6680  -26.7470    2.8930 C.ar    1  UNL1        0.0016
     10 C          11.4580  -27.7460    3.4120 C.ar    1  UNL1        0.0207
     11 C          12.7460  -27.3850    3.8390 C.ar    1  UNL1        0.1003
     12 N          13.7610  -28.1240    4.4650 N.ar    1  UNL1       -0.2274
     13 O          17.5300  -27.4990    7.4950 O.2     1  UNL1       -0.1725
     14 S          16.1810  -27.2690    7.1020 S.O2    1  UNL1       -0.0008
@<TRIPOS>BOND
     1     5     4    1
     2     5     1   ar
     3     6     1   ar
     4     7     6   ar
     5     8     7   ar
     6     9     8   ar
     7    10     9   ar
     8    11    10   ar
     9    11     6   ar
    10    12    11   ar
    11    12     5   ar
    12    14     4    1
    13    14     3    2
    14    14     2    1
    15    14    13    2
