@<TRIPOS>MOLECULE
*****
 19 20 0 0 0
SMALL
GASTEIGER

@<TRIPOS>ATOM
      1 N           7.2980   -0.5040   20.9930 N.am    1  UNL1       -0.2554
      2 C           5.3560    1.2760   17.8150 C.ar    1  UNL1        0.0987
      3 C           8.4750   -0.0680   21.5110 C.2     1  UNL1        0.2338
      4 C          11.5320   -1.1260   21.9710 C.ar    1  UNL1        0.0076
      5 C           9.1190   -0.8710   22.6260 C.3     1  UNL1        0.1119
      6 C          13.2800    0.1720   23.0100 C.ar    1  UNL1        0.0114
      7 C          12.3300    0.7890   23.8090 C.ar    1  UNL1        0.0006
      8 C          10.9910    0.4480   23.6920 C.ar    1  UNL1       -0.0037
      9 C           7.0680    0.0200   18.6550 C.ar    1  UNL1        0.1134
     10 C           5.4470    0.9460   20.1840 C.ar    1  UNL1       -0.0051
     11 C           6.5950    0.1860   19.9550 C.ar    1  UNL1        0.0691
     12 C           4.8190    1.4870   19.0680 C.ar    1  UNL1        0.0177
     13 C           4.9130    1.2120   21.5690 C.3     1  UNL1        0.0324
     14 C           6.7250   -1.7730   21.4450 C.3     1  UNL1        0.1201
     15 N           6.4640    0.5590   17.5920 N.ar    1  UNL1       -0.2410
     16 O           9.0250    0.9450   21.0940 O.2     1  UNL1       -0.2742
     17 C          12.8610   -0.7880   22.1100 C.ar    1  UNL1        0.0574
     18 C          10.5790   -0.5120   22.7760 C.ar    1  UNL1       -0.0122
     19 CL         14.0490   -1.6870   21.2150 Cl      1  UNL1       -0.0823
@<TRIPOS>BOND
     1     3     1   am
     2     5     3    1
     3     7     6   ar
     4     8     7   ar
     5    11    10   ar
     6    11     9   ar
     7    11     1    1
     8    12    10   ar
     9    12     2   ar
    10    13    10    1
    11    14     1    1
    12    15     2   ar
    13    15     9   ar
    14    16     3    2
    15    17     6   ar
    16    17     4   ar
    17    18     5    1
    18    18     8   ar
    19    18     4   ar
    20    19    17    1
