@<TRIPOS>MOLECULE
*****
 18 19 0 0 0
SMALL
GASTEIGER

@<TRIPOS>ATOM
      1 N           8.7390   -1.9550   23.1320 N.3     1  UNL1       -0.2674
      2 C          12.6700   -2.0010   22.2380 C.3     1  UNL1        0.0307
      3 O           5.9150   -4.4150   19.6290 O.2     1  UNL1       -0.2749
      4 C          12.1150   -0.9110   23.1190 C.ar    1  UNL1       -0.0245
      5 C           6.4140   -1.4560   21.3520 C.3     1  UNL1        0.0949
      6 C           7.1440   -3.7230   22.1850 C.3     1  UNL1        0.1107
      7 C           7.7110   -2.9800   23.3930 C.3     1  UNL1        0.0941
      8 C           6.5340   -3.3760   19.8420 C.2     1  UNL1        0.2262
      9 C           7.2280   -2.6990   18.6680 C.3     1  UNL1        0.0948
     10 C          12.8390    0.2630   23.2580 C.ar    1  UNL1       -0.0045
     11 C          12.3880    1.2960   24.0550 C.ar    1  UNL1       -0.0003
     12 C          11.1970    1.1710   24.7290 C.ar    1  UNL1       -0.0003
     13 C          10.4620    0.0080   24.6100 C.ar    1  UNL1       -0.0032
     14 C          10.9090   -1.0540   23.8260 C.ar    1  UNL1       -0.0101
     15 C          10.0480   -2.2890   23.7060 C.3     1  UNL1        0.0989
     16 C           8.8570   -1.4760   21.7460 C.3     1  UNL1        0.0742
     17 C           7.6820   -0.6430   21.3140 C.3     1  UNL1        0.0388
     18 N           6.6650   -2.8780   21.0840 N.am    1  UNL1       -0.2781
@<TRIPOS>BOND
     1     4     2    1
     2     7     6    1
     3     7     1    1
     4     8     3    2
     5     9     8    1
     6    10     4   ar
     7    11    10   ar
     8    12    11   ar
     9    13    12   ar
    10    14    13   ar
    11    14     4   ar
    12    15     1    1
    13    15    14    1
    14    16     1    1
    15    17    16    1
    16    17     5    1
    17    18     8   am
    18    18     5    1
    19    18     6    1
