@<TRIPOS>MOLECULE
*****
 32 35 0 0 0
SMALL
GASTEIGER

@<TRIPOS>ATOM
      1 O           9.3110    1.2130   20.9150 O.2     1  UNL1       -0.2726
      2 C           8.7500    0.2950   21.4950 C.2     1  UNL1        0.2504
      3 N           7.5680   -0.2100   21.0740 N.am    1  UNL1       -0.1773
      4 C           6.8160    0.2270   19.9670 C.ar    1  UNL1        0.0925
      5 C           5.6640    1.0440   20.1960 C.ar    1  UNL1        0.0184
      6 C           5.2090    1.4260   21.4860 C.ar    1  UNL1        0.0014
      7 C           4.1200    2.2390   21.6350 C.ar    1  UNL1        0.0000
      8 C           3.4340    2.7140   20.5240 C.ar    1  UNL1        0.0001
      9 C           3.8300    2.3700   19.2630 C.ar    1  UNL1        0.0016
     10 C           4.9510    1.5260   19.0640 C.ar    1  UNL1        0.0204
     11 C           5.4270    1.1580   17.7820 C.ar    1  UNL1        0.0989
     12 N           6.4950    0.4040   17.5710 N.ar    1  UNL1       -0.2410
     13 C           7.1600   -0.0440   18.6430 C.ar    1  UNL1        0.1154
     14 C           9.3370   -0.2940   22.8000 C.3     1  UNL1        0.1160
     15 C          10.8490   -0.0700   22.8010 C.ar    1  UNL1        0.0221
     16 C          11.7040   -0.8650   22.0400 C.ar    1  UNL1        0.0106
     17 C          13.0660   -0.6260   22.0810 C.ar    1  UNL1        0.0576
     18 CL         14.1050   -1.4680   20.9620 Cl      1  UNL1       -0.0823
     19 C          13.6110    0.3430   22.8960 C.ar    1  UNL1        0.0145
     20 C          12.7740    1.1300   23.6630 C.ar    1  UNL1        0.0374
     21 C          11.4070    0.9270   23.6000 C.ar    1  UNL1        0.1350
     22 O          10.6400    1.7640   24.3670 O.3     1  UNL1       -0.4757
     23 C           9.5090    1.1020   24.9360 C.3     1  UNL1        0.2063
     24 C           8.5840    0.5240   23.8800 C.3     1  UNL1        0.0619
     25 C           9.0110   -1.8020   22.8730 C.3     1  UNL1        0.1281
     26 N           9.3730   -2.4480   24.1230 N.am    1  UNL1       -0.2034
     27 C           8.9770   -3.6870   24.4050 C.2     1  UNL1        0.2578
     28 O           8.2210   -4.3260   23.6750 O.2     1  UNL1       -0.2718
     29 C           9.5910   -4.3110   25.6490 C.3     1  UNL1        0.1603
     30 N           8.7810   -4.1870   26.8660 N.3     1  UNL1       -0.2625
     31 C           9.4970   -4.7260   28.0180 C.3     1  UNL1        0.0900
     32 C           7.5010   -4.8750   26.7130 C.3     1  UNL1        0.0900
@<TRIPOS>BOND
     1     2     1    2
     2     3     2   am
     3     4     3    1
     4     5     4   ar
     5     6     5   ar
     6     7     6   ar
     7     8     7   ar
     8     9     8   ar
     9    10     9   ar
    10    10     5   ar
    11    11    10   ar
    12    12    11   ar
    13    13    12   ar
    14    13     4   ar
    15    14     2    1
    16    15    14    1
    17    16    15   ar
    18    17    16   ar
    19    18    17    1
    20    19    17   ar
    21    20    19   ar
    22    21    15   ar
    23    21    20   ar
    24    22    21    1
    25    23    22    1
    26    24    23    1
    27    24    14    1
    28    14    25    1
    29    26    25    1
    30    27    26   am
    31    28    27    2
    32    29    27    1
    33    30    29    1
    34    31    30    1
    35    32    30    1
