@<TRIPOS>MOLECULE
*****
 27 31 0 0 0
SMALL
GASTEIGER

@<TRIPOS>ATOM
      1 O           9.0420    1.1170   21.3270 O.2     1  UNL1       -0.2738
      2 C           8.5740    0.0880   21.7800 C.2     1  UNL1        0.2387
      3 C           9.0140   -0.6200   23.0650 C.3     1  UNL1        0.1035
      4 C           8.3950    0.1510   24.2580 C.3     1  UNL1        0.0606
      5 C           9.1970   -0.0270   25.5300 C.3     1  UNL1        0.2062
      6 O          10.5570    0.3920   25.3450 O.3     1  UNL1       -0.4757
      7 C          10.5440   -0.7100   23.1780 C.ar    1  UNL1        0.0208
      8 C          11.2030   -0.2680   24.3300 C.ar    1  UNL1        0.1350
      9 C          12.5620   -0.4680   24.5120 C.ar    1  UNL1        0.0374
     10 C          13.2930   -1.1020   23.5270 C.ar    1  UNL1        0.0145
     11 C          11.3010   -1.3230   22.1810 C.ar    1  UNL1        0.0106
     12 C          12.6610   -1.4990   22.3710 C.ar    1  UNL1        0.0576
     13 CL         13.6100   -2.1890   21.0840 Cl      1  UNL1       -0.0823
     14 N           7.5230   -0.6470   21.2200 N.am    1  UNL1       -0.2063
     15 C           7.2990   -1.8550   21.8800 C.2     1  UNL1        0.2360
     16 O           6.3760   -2.6150   21.6250 O.2     1  UNL1       -0.2741
     17 C           8.3560   -2.0090   22.9370 C.3     1  UNL1        0.0989
     18 C           6.7060   -0.1700   20.1290 C.ar    1  UNL1        0.0797
     19 C           5.5900    0.6730   20.4120 C.ar    1  UNL1        0.0171
     20 C           5.0490    0.8760   21.7090 C.ar    1  UNL1        0.0013
     21 C           3.9690    1.6930   21.9000 C.ar    1  UNL1        0.0000
     22 C           3.3770    2.3470   20.8270 C.ar    1  UNL1        0.0001
     23 C           3.8600    2.1860   19.5600 C.ar    1  UNL1        0.0016
     24 C           4.9780    1.3470   19.3170 C.ar    1  UNL1        0.0204
     25 C           5.5260    1.1420   18.0250 C.ar    1  UNL1        0.0989
     26 N           6.5770    0.3710   17.7760 N.ar    1  UNL1       -0.2410
     27 C           7.1390   -0.2650   18.8120 C.ar    1  UNL1        0.1141
@<TRIPOS>BOND
     1     2     1    2
     2     3     2    1
     3     3     4    1
     4     5     4    1
     5     6     5    1
     6     7     3    1
     7     8     7   ar
     8     8     6    1
     9     9     8   ar
    10    10     9   ar
    11    11     7   ar
    12    12    11   ar
    13    12    10   ar
    14    13    12    1
    15    14     2   am
    16    15    14   am
    17    16    15    2
    18    17    15    1
    19    17     3    1
    20    18    14    1
    21    19    18   ar
    22    20    19   ar
    23    21    20   ar
    24    22    21   ar
    25    23    22   ar
    26    24    23   ar
    27    24    19   ar
    28    25    24   ar
    29    26    25   ar
    30    27    26   ar
    31    27    18   ar
