
     RDKit          3D

 27 31  0  0  0  0  0  0  0  0999 V2000
    9.0420    1.1170   21.3270 O   0  0  0  0  0  0  0  0  0  0  0  0
    8.5740    0.0880   21.7800 C   0  0  0  0  0  0  0  0  0  0  0  0
    9.0140   -0.6200   23.0650 C   0  0  2  0  0  0  0  0  0  0  0  0
    8.3950    0.1510   24.2580 C   0  0  0  0  0  0  0  0  0  0  0  0
    9.1970   -0.0270   25.5300 C   0  0  0  0  0  0  0  0  0  0  0  0
   10.5570    0.3920   25.3450 O   0  0  0  0  0  0  0  0  0  0  0  0
   10.5440   -0.7100   23.1780 C   0  0  0  0  0  0  0  0  0  0  0  0
   11.2030   -0.2680   24.3300 C   0  0  0  0  0  0  0  0  0  0  0  0
   12.5620   -0.4680   24.5120 C   0  0  0  0  0  0  0  0  0  0  0  0
   13.2930   -1.1020   23.5270 C   0  0  0  0  0  0  0  0  0  0  0  0
   11.3010   -1.3230   22.1810 C   0  0  0  0  0  0  0  0  0  0  0  0
   12.6610   -1.4990   22.3710 C   0  0  0  0  0  0  0  0  0  0  0  0
   13.6100   -2.1890   21.0840 Cl  0  0  0  0  0  0  0  0  0  0  0  0
    7.5230   -0.6470   21.2200 N   0  0  0  0  0  0  0  0  0  0  0  0
    7.2990   -1.8550   21.8800 C   0  0  0  0  0  0  0  0  0  0  0  0
    6.3760   -2.6150   21.6250 O   0  0  0  0  0  0  0  0  0  0  0  0
    8.3560   -2.0090   22.9370 C   0  0  0  0  0  0  0  0  0  0  0  0
    6.7060   -0.1700   20.1290 C   0  0  0  0  0  0  0  0  0  0  0  0
    5.5900    0.6730   20.4120 C   0  0  0  0  0  0  0  0  0  0  0  0
    5.0490    0.8760   21.7090 C   0  0  0  0  0  0  0  0  0  0  0  0
    3.9690    1.6930   21.9000 C   0  0  0  0  0  0  0  0  0  0  0  0
    3.3770    2.3470   20.8270 C   0  0  0  0  0  0  0  0  0  0  0  0
    3.8600    2.1860   19.5600 C   0  0  0  0  0  0  0  0  0  0  0  0
    4.9780    1.3470   19.3170 C   0  0  0  0  0  0  0  0  0  0  0  0
    5.5260    1.1420   18.0250 C   0  0  0  0  0  0  0  0  0  0  0  0
    6.5770    0.3710   17.7760 N   0  0  0  0  0  0  0  0  0  0  0  0
    7.1390   -0.2650   18.8120 C   0  0  0  0  0  0  0  0  0  0  0  0
  2  1  2  0
  3  2  1  0
  3  4  1  1
  5  4  1  0
  6  5  1  0
  7  3  1  0
  8  7  2  0
  8  6  1  0
  9  8  1  0
 10  9  2  0
 11  7  1  0
 12 11  2  0
 12 10  1  0
 13 12  1  0
 14  2  1  0
 15 14  1  0
 16 15  2  0
 17 15  1  0
 17  3  1  0
 18 14  1  0
 19 18  1  0
 20 19  2  0
 21 20  1  0
 22 21  2  0
 23 22  1  0
 24 23  2  0
 24 19  1  0
 25 24  1  0
 26 25  2  0
 27 26  1  0
 27 18  2  0
M  END
