@<TRIPOS>MOLECULE
*****
 25 28 0 0 0
SMALL
GASTEIGER

@<TRIPOS>ATOM
      1 O           8.7520    0.9300   21.1260 O.2     1  UNL1       -0.2726
      2 C           8.2990   -0.1830   21.3870 C.2     1  UNL1        0.2495
      3 C           8.8520   -1.0440   22.5260 C.3     1  UNL1        0.1074
      4 C           8.0600   -0.8570   23.8360 C.3     1  UNL1        0.0610
      5 C           8.3110    0.5200   24.4070 C.3     1  UNL1        0.2063
      6 O           9.7180    0.8210   24.5940 O.3     1  UNL1       -0.4749
      7 C          10.3030   -0.6900   22.7690 C.ar    1  UNL1        0.0220
      8 C          10.6460    0.2200   23.7790 C.ar    1  UNL1        0.1454
      9 C          11.9830    0.5230   24.0090 C.ar    1  UNL1        0.0920
     10 CL         12.4170    1.5390   25.3490 Cl      1  UNL1       -0.0791
     11 C          12.9870   -0.0410   23.2510 C.ar    1  UNL1        0.0258
     12 C          11.3250   -1.2770   22.0230 C.ar    1  UNL1        0.0106
     13 C          12.6410   -0.9410   22.2690 C.ar    1  UNL1        0.0584
     14 CL         13.8940   -1.6590   21.2970 Cl      1  UNL1       -0.0822
     15 N           7.2780   -0.7490   20.7010 N.am    1  UNL1       -0.1774
     16 C           6.5340   -0.2030   19.6380 C.ar    1  UNL1        0.0925
     17 C           5.4450    0.6700   19.9430 C.ar    1  UNL1        0.0184
     18 C           4.9330    0.8700   21.2550 C.ar    1  UNL1        0.0014
     19 C           3.9120    1.7500   21.4860 C.ar    1  UNL1        0.0000
     20 C           3.3450    2.4670   20.4380 C.ar    1  UNL1        0.0001
     21 C           3.7900    2.2970   19.1570 C.ar    1  UNL1        0.0016
     22 C           4.8470    1.3940   18.8750 C.ar    1  UNL1        0.0204
     23 C           5.3560    1.1790   17.5710 C.ar    1  UNL1        0.0989
     24 N           6.3470    0.3480   17.2830 N.ar    1  UNL1       -0.2410
     25 C           6.9060   -0.3230   18.2990 C.ar    1  UNL1        0.1154
@<TRIPOS>BOND
     1     2     1    2
     2     3     2    1
     3     4     3    1
     4     5     4    1
     5     6     5    1
     6     7     3    1
     7     8     7   ar
     8     8     6    1
     9     9     8   ar
    10    10     9    1
    11    11     9   ar
    12    12     7   ar
    13    13    12   ar
    14    13    11   ar
    15    14    13    1
    16    15     2   am
    17    16    15    1
    18    17    16   ar
    19    18    17   ar
    20    19    18   ar
    21    20    19   ar
    22    21    20   ar
    23    22    21   ar
    24    22    17   ar
    25    23    22   ar
    26    24    23   ar
    27    25    24   ar
    28    25    16   ar
