
     RDKit          3D

 25 28  0  0  0  0  0  0  0  0999 V2000
    8.7520    0.9300   21.1260 O   0  0  0  0  0  0  0  0  0  0  0  0
    8.2990   -0.1830   21.3870 C   0  0  0  0  0  0  0  0  0  0  0  0
    8.8520   -1.0440   22.5260 C   0  0  2  0  0  0  0  0  0  0  0  0
    8.0600   -0.8570   23.8360 C   0  0  0  0  0  0  0  0  0  0  0  0
    8.3110    0.5200   24.4070 C   0  0  0  0  0  0  0  0  0  0  0  0
    9.7180    0.8210   24.5940 O   0  0  0  0  0  0  0  0  0  0  0  0
   10.3030   -0.6900   22.7690 C   0  0  0  0  0  0  0  0  0  0  0  0
   10.6460    0.2200   23.7790 C   0  0  0  0  0  0  0  0  0  0  0  0
   11.9830    0.5230   24.0090 C   0  0  0  0  0  0  0  0  0  0  0  0
   12.4170    1.5390   25.3490 Cl  0  0  0  0  0  0  0  0  0  0  0  0
   12.9870   -0.0410   23.2510 C   0  0  0  0  0  0  0  0  0  0  0  0
   11.3250   -1.2770   22.0230 C   0  0  0  0  0  0  0  0  0  0  0  0
   12.6410   -0.9410   22.2690 C   0  0  0  0  0  0  0  0  0  0  0  0
   13.8940   -1.6590   21.2970 Cl  0  0  0  0  0  0  0  0  0  0  0  0
    7.2780   -0.7490   20.7010 N   0  0  0  0  0  0  0  0  0  0  0  0
    6.5340   -0.2030   19.6380 C   0  0  0  0  0  0  0  0  0  0  0  0
    5.4450    0.6700   19.9430 C   0  0  0  0  0  0  0  0  0  0  0  0
    4.9330    0.8700   21.2550 C   0  0  0  0  0  0  0  0  0  0  0  0
    3.9120    1.7500   21.4860 C   0  0  0  0  0  0  0  0  0  0  0  0
    3.3450    2.4670   20.4380 C   0  0  0  0  0  0  0  0  0  0  0  0
    3.7900    2.2970   19.1570 C   0  0  0  0  0  0  0  0  0  0  0  0
    4.8470    1.3940   18.8750 C   0  0  0  0  0  0  0  0  0  0  0  0
    5.3560    1.1790   17.5710 C   0  0  0  0  0  0  0  0  0  0  0  0
    6.3470    0.3480   17.2830 N   0  0  0  0  0  0  0  0  0  0  0  0
    6.9060   -0.3230   18.2990 C   0  0  0  0  0  0  0  0  0  0  0  0
  2  1  2  0
  3  2  1  6
  4  3  1  0
  5  4  1  0
  6  5  1  0
  7  3  1  0
  8  7  2  0
  8  6  1  0
  9  8  1  0
 10  9  1  0
 11  9  2  0
 12  7  1  0
 13 12  2  0
 13 11  1  0
 14 13  1  0
 15  2  1  0
 16 15  1  0
 17 16  1  0
 18 17  2  0
 19 18  1  0
 20 19  2  0
 21 20  1  0
 22 21  2  0
 22 17  1  0
 23 22  1  0
 24 23  2  0
 25 24  1  0
 25 16  2  0
M  END
