@<TRIPOS>MOLECULE
*****
 16 18 0 0 0
SMALL
GASTEIGER

@<TRIPOS>ATOM
      1 C          20.7590   18.6060    6.2910 C.3     1  UNL1        0.0014
      2 C          20.0460   19.7230    5.8900 C.3     1  UNL1        0.0000
      3 C          21.8220   16.3930    5.7800 C.3     1  UNL1        0.0720
      4 C          20.3610   15.3770    7.4420 C.3     1  UNL1        0.0600
      5 C          21.5430   15.1540    8.4000 C.3     1  UNL1        0.0174
      6 C          22.5580   14.3930    7.5440 C.3     1  UNL1        0.0174
      7 C          21.7630   14.0540    6.2950 C.3     1  UNL1        0.0600
      8 C          20.8900   12.8090    6.4070 C.3     1  UNL1        0.0489
      9 C          19.7860   12.9300    7.4330 C.3     1  UNL1        0.1547
     10 C          19.2530   14.3400    7.5780 C.3     1  UNL1        0.0489
     11 O          20.3140   12.4990    8.6690 O.3     1  UNL1       -0.2231
     12 N          20.9560   15.2330    6.1080 N.3     1  UNL1       -0.2751
     13 C          21.0660   17.6280    5.3700 C.3     1  UNL1        0.0160
     14 C          20.6730   17.8130    4.0570 C.3     1  UNL1        0.0014
     15 C          20.0080   18.9520    3.6610 C.3     1  UNL1        0.0000
     16 C          19.6750   19.8960    4.5730 C.3     1  UNL1        0.0000
@<TRIPOS>BOND
     1     2     1    1
     2     4     5    1
     3     6     5    1
     4     7     6    1
     5     8     7    1
     6     9     8    1
     7    10     9    1
     8    10     4    1
     9     9    11    1
    10    12     7    1
    11    12     4    1
    12    12     3    1
    13    13     1    1
    14    13     3    1
    15    14    13    1
    16    15    14    1
    17    16    15    1
    18    16     2    1
