@<TRIPOS>MOLECULE
*****
 20 22 0 0 0
SMALL
GASTEIGER

@<TRIPOS>ATOM
      1 O           9.8100    1.1460   21.2210 O.2     1  UNL1       -0.2726
      2 C           9.5230    0.0530   21.6910 C.2     1  UNL1        0.2500
      3 N           8.4110   -0.6330   21.3370 N.am    1  UNL1       -0.1777
      4 C           7.5100   -0.2020   20.3250 C.ar    1  UNL1        0.0885
      5 C           7.8770   -0.1450   18.9770 C.ar    1  UNL1        0.1151
      6 N           7.0650    0.2920   18.0050 N.ar    1  UNL1       -0.2410
      7 C           5.8340    0.6740   18.3580 C.ar    1  UNL1        0.0987
      8 C           5.3780    0.6650   19.6620 C.ar    1  UNL1        0.0177
      9 C           6.2170    0.2250   20.6830 C.ar    1  UNL1       -0.0034
     10 C           5.7560    0.2470   22.1170 C.3     1  UNL1        0.0325
     11 C          10.4380   -0.6360   22.6860 C.3     1  UNL1        0.1135
     12 C           9.8200   -1.6950   23.5710 C.ar    1  UNL1       -0.0114
     13 C          10.2310   -3.0210   23.4530 C.ar    1  UNL1        0.0169
     14 C           9.8070   -3.9620   24.3900 C.ar    1  UNL1        0.1004
     15 N          10.0930   -5.3220   24.5300 N.ar    1  UNL1       -0.2225
     16 C           9.4530   -5.6830   25.6250 C.ar    1  UNL1        0.1989
     17 N           8.7670   -4.6740   26.2120 N.ar    1  UNL1       -0.2225
     18 C           8.9730   -3.5630   25.4340 C.ar    1  UNL1        0.1007
     19 C           8.5220   -2.2560   25.5480 C.ar    1  UNL1        0.0204
     20 C           8.9460   -1.3390   24.5990 C.ar    1  UNL1       -0.0021
@<TRIPOS>BOND
     1     2     1    2
     2     3     2   am
     3     4     3    1
     4     5     4   ar
     5     6     5   ar
     6     7     6   ar
     7     8     7   ar
     8     9     8   ar
     9     9     4   ar
    10    10     9    1
    11    11     2    1
    12    12    11    1
    13    13    12   ar
    14    14    13   ar
    15    15    14   ar
    16    16    15   ar
    17    17    16   ar
    18    18    17   ar
    19    18    14   ar
    20    19    18   ar
    21    20    19   ar
    22    20    12   ar
