@<TRIPOS>MOLECULE
*****
 49 51 0 0 0
SMALL
GASTEIGER

@<TRIPOS>ATOM
      1 C         -18.7230   11.5450   37.8360 C.3     1  UNL1        0.0559
      2 C         -19.6040   11.9640   38.8090 C.3     1  UNL1        0.1410
      3 C         -19.5440   13.2930   39.5590 C.3     1  UNL1        0.0343
      4 O         -20.5300   10.9960   38.9830 O.3     1  UNL1       -0.2687
      5 N         -20.2260    9.9500   38.1050 N.3     1  UNL1       -0.0810
      6 C         -19.1220   10.2920   37.4130 C.3     1  UNL1        0.1526
      7 C         -18.4390    9.4300   36.3220 C.3     1  UNL1        0.2442
      8 O         -17.8280    9.9630   35.4190 O.3     1  UNL1       -0.2020
      9 N         -18.5320    7.9800   36.3730 N.3     1  UNL1       -0.1853
     10 C         -17.9140    7.1860   35.3480 C.3     1  UNL1        0.1226
     11 C         -18.8080    7.3540   34.1210 C.3     1  UNL1        0.2417
     12 O         -20.0270    7.4440   34.2820 O.3     1  UNL1       -0.2021
     13 C         -17.9060    5.7500   35.7780 C.3     1  UNL1        0.0232
     14 N         -18.2720    7.4210   32.7680 N.3     1  UNL1       -0.1854
     15 C         -19.2030    7.6090   31.6540 C.3     1  UNL1        0.1225
     16 C         -19.6380    6.3100   31.0230 C.3     1  UNL1        0.2417
     17 O         -18.7930    5.5130   30.6020 O.3     1  UNL1       -0.2021
     18 C         -18.5440    8.4670   30.5980 C.3     1  UNL1        0.0201
     19 C         -19.5190    8.7160   29.4680 C.3     1  UNL1        0.0016
     20 C         -18.1370    9.7910   31.2210 C.3     1  UNL1        0.0016
     21 N         -21.0840    6.0020   30.8960 N.3     1  UNL1       -0.1854
     22 C         -21.5020    4.7800   30.2720 C.3     1  UNL1        0.1226
     23 C         -21.0660    4.9700   28.8150 C.3     1  UNL1        0.2416
     24 O         -21.4560    5.9590   28.2020 O.3     1  UNL1       -0.2021
     25 C         -22.9950    4.6350   30.3370 C.3     1  UNL1        0.0216
     26 C         -23.4010    3.7860   31.5730 C.3     1  UNL1        0.0015
     27 C         -24.9070    3.9560   31.8360 C.3     1  UNL1        0.0000
     28 C         -23.0810    2.2420   31.3000 C.3     1  UNL1        0.0000
     29 C         -19.8480    4.3930   26.7620 C.3     1  UNL1        0.0756
     30 C         -20.6990    3.6940   25.7540 C.3     1  UNL1        0.0228
     31 C         -21.6540    4.5650   25.2280 C.3     1  UNL1        0.0658
     32 C         -22.6860    4.1870   24.1560 C.3     1  UNL1        0.2690
     33 C         -18.3500    4.2720   26.5080 C.3     1  UNL1        0.0215
     34 C         -17.7790    5.4380   27.0670 C.3     1  UNL1        0.0503
     35 C         -18.2080    6.6560   26.2360 C.3     1  UNL1        0.0229
     36 C         -17.1130    7.5060   26.3230 C.3     1  UNL1        0.0914
     37 N         -15.8790    6.6040   26.4770 N.3     1  UNL1       -0.1893
     38 C         -16.2480    5.4160   26.9000 C.3     1  UNL1        0.2255
     39 O         -15.5050    4.4610   27.1290 O.3     1  UNL1       -0.2037
     40 N         -20.1810    4.0320   28.1390 N.3     1  UNL1       -0.1895
     41 O         -22.3550    4.0840   23.0220 O.3     1  UNL1       -0.1899
     42 C         -24.8900    5.0160   23.8800 C.3     1  UNL1        0.1448
     43 O         -24.0540    4.0060   24.5050 O.3     1  UNL1       -0.3285
     44 C         -24.9070    5.9760   26.3120 C.3     1  UNL1        0.0025
     45 C         -25.2310    6.9540   27.2640 C.3     1  UNL1        0.0001
     46 C         -25.9240    8.1090   26.8850 C.3     1  UNL1        0.0000
     47 C         -26.2650    8.2700   25.5230 C.3     1  UNL1        0.0001
     48 C         -25.9470    7.3010   24.5700 C.3     1  UNL1        0.0025
     49 C         -25.2610    6.1390   24.9630 C.3     1  UNL1        0.0298
@<TRIPOS>BOND
     1     2     1    1
     2     3     2    1
     3     4     2    1
     4     5     4    1
     5     6     5    1
     6     6     1    1
     7     7     6    1
     8     8     7    1
     9     9     7    1
    10    10     9    1
    11    11    10    1
    12    12    11    1
    13    10    13    1
    14    14    11    1
    15    15    14    1
    16    16    15    1
    17    17    16    1
    18    18    15    1
    19    18    19    1
    20    20    18    1
    21    21    16    1
    22    22    21    1
    23    23    22    1
    24    24    23    1
    25    22    25    1
    26    26    25    1
    27    26    27    1
    28    28    26    1
    29    29    30    1
    30    31    30    1
    31    32    31    1
    32    33    29    1
    33    34    33    1
    34    35    34    1
    35    36    35    1
    36    37    36    1
    37    38    34    1
    38    38    37    1
    39    39    38    1
    40    40    29    1
    41    40    23    1
    42    41    32    1
    43    43    42    1
    44    43    32    1
    45    45    44    1
    46    46    45    1
    47    47    46    1
    48    48    47    1
    49    49    42    1
    50    49    48    1
    51    49    44    1
