
     RDKit          3D

 49 51  0  0  0  0  0  0  0  0999 V2000
  -18.7230   11.5450   37.8360 C   0  0  0  0  0  0  0  0  0  0  0  0
  -19.6040   11.9640   38.8090 C   0  0  0  0  0  0  0  0  0  0  0  0
  -19.5440   13.2930   39.5590 C   0  0  0  0  0  0  0  0  0  0  0  0
  -20.5300   10.9960   38.9830 O   0  0  0  0  0  0  0  0  0  0  0  0
  -20.2260    9.9500   38.1050 N   0  0  0  0  0  0  0  0  0  0  0  0
  -19.1220   10.2920   37.4130 C   0  0  0  0  0  0  0  0  0  0  0  0
  -18.4390    9.4300   36.3220 C   0  0  0  0  0  0  0  0  0  0  0  0
  -17.8280    9.9630   35.4190 O   0  0  0  0  0  0  0  0  0  0  0  0
  -18.5320    7.9800   36.3730 N   0  0  0  0  0  0  0  0  0  0  0  0
  -17.9140    7.1860   35.3480 C   0  0  2  0  0  0  0  0  0  0  0  0
  -18.8080    7.3540   34.1210 C   0  0  0  0  0  0  0  0  0  0  0  0
  -20.0270    7.4440   34.2820 O   0  0  0  0  0  0  0  0  0  0  0  0
  -17.9060    5.7500   35.7780 C   0  0  0  0  0  0  0  0  0  0  0  0
  -18.2720    7.4210   32.7680 N   0  0  0  0  0  0  0  0  0  0  0  0
  -19.2030    7.6090   31.6540 C   0  0  2  0  0  0  0  0  0  0  0  0
  -19.6380    6.3100   31.0230 C   0  0  0  0  0  0  0  0  0  0  0  0
  -18.7930    5.5130   30.6020 O   0  0  0  0  0  0  0  0  0  0  0  0
  -18.5440    8.4670   30.5980 C   0  0  1  0  0  0  0  0  0  0  0  0
  -19.5190    8.7160   29.4680 C   0  0  0  0  0  0  0  0  0  0  0  0
  -18.1370    9.7910   31.2210 C   0  0  0  0  0  0  0  0  0  0  0  0
  -21.0840    6.0020   30.8960 N   0  0  0  0  0  0  0  0  0  0  0  0
  -21.5020    4.7800   30.2720 C   0  0  2  0  0  0  0  0  0  0  0  0
  -21.0660    4.9700   28.8150 C   0  0  0  0  0  0  0  0  0  0  0  0
  -21.4560    5.9590   28.2020 O   0  0  0  0  0  0  0  0  0  0  0  0
  -22.9950    4.6350   30.3370 C   0  0  0  0  0  0  0  0  0  0  0  0
  -23.4010    3.7860   31.5730 C   0  0  1  0  0  0  0  0  0  0  0  0
  -24.9070    3.9560   31.8360 C   0  0  0  0  0  0  0  0  0  0  0  0
  -23.0810    2.2420   31.3000 C   0  0  0  0  0  0  0  0  0  0  0  0
  -19.8480    4.3930   26.7620 C   0  0  2  0  0  0  0  0  0  0  0  0
  -20.6990    3.6940   25.7540 C   0  0  0  0  0  0  0  0  0  0  0  0
  -21.6540    4.5650   25.2280 C   0  0  0  0  0  0  0  0  0  0  0  0
  -22.6860    4.1870   24.1560 C   0  0  0  0  0  0  0  0  0  0  0  0
  -18.3500    4.2720   26.5080 C   0  0  0  0  0  0  0  0  0  0  0  0
  -17.7790    5.4380   27.0670 C   0  0  2  0  0  0  0  0  0  0  0  0
  -18.2080    6.6560   26.2360 C   0  0  0  0  0  0  0  0  0  0  0  0
  -17.1130    7.5060   26.3230 C   0  0  0  0  0  0  0  0  0  0  0  0
  -15.8790    6.6040   26.4770 N   0  0  0  0  0  0  0  0  0  0  0  0
  -16.2480    5.4160   26.9000 C   0  0  0  0  0  0  0  0  0  0  0  0
  -15.5050    4.4610   27.1290 O   0  0  0  0  0  0  0  0  0  0  0  0
  -20.1810    4.0320   28.1390 N   0  0  0  0  0  0  0  0  0  0  0  0
  -22.3550    4.0840   23.0220 O   0  0  0  0  0  0  0  0  0  0  0  0
  -24.8900    5.0160   23.8800 C   0  0  0  0  0  0  0  0  0  0  0  0
  -24.0540    4.0060   24.5050 O   0  0  0  0  0  0  0  0  0  0  0  0
  -24.9070    5.9760   26.3120 C   0  0  0  0  0  0  0  0  0  0  0  0
  -25.2310    6.9540   27.2640 C   0  0  0  0  0  0  0  0  0  0  0  0
  -25.9240    8.1090   26.8850 C   0  0  0  0  0  0  0  0  0  0  0  0
  -26.2650    8.2700   25.5230 C   0  0  0  0  0  0  0  0  0  0  0  0
  -25.9470    7.3010   24.5700 C   0  0  0  0  0  0  0  0  0  0  0  0
  -25.2610    6.1390   24.9630 C   0  0  0  0  0  0  0  0  0  0  0  0
  2  1  1  0
  3  2  1  0
  4  2  1  0
  5  4  1  0
  6  5  1  0
  6  1  1  0
  7  6  1  0
  8  7  1  0
  9  7  1  0
 10  9  1  0
 11 10  1  0
 12 11  1  0
 10 13  1  1
 14 11  1  0
 15 14  1  1
 16 15  1  0
 17 16  1  0
 18 15  1  0
 18 19  1  6
 20 18  1  0
 21 16  1  0
 22 21  1  0
 23 22  1  0
 24 23  1  0
 22 25  1  6
 26 25  1  0
 26 27  1  6
 28 26  1  0
 29 30  1  6
 31 30  1  0
 32 31  1  0
 33 29  1  0
 34 33  1  6
 35 34  1  0
 36 35  1  0
 37 36  1  0
 38 34  1  0
 38 37  1  0
 39 38  1  0
 40 29  1  0
 40 23  1  0
 41 32  1  0
 43 42  1  0
 43 32  1  0
 45 44  1  0
 46 45  1  0
 47 46  1  0
 48 47  1  0
 49 42  1  0
 49 48  1  0
 49 44  1  0
M  END
