@<TRIPOS>MOLECULE
*****
 17 18 0 0 0
SMALL
GASTEIGER

@<TRIPOS>ATOM
      1 N           6.9620   -4.3460   21.3670 N.am    1  UNL1       -0.2795
      2 C           7.0480   -3.0970   19.2470 C.3     1  UNL1        0.0948
      3 O           5.6730   -4.9800   19.6210 O.2     1  UNL1       -0.2749
      4 C           6.5050   -4.2170   20.0980 C.2     1  UNL1        0.2261
      5 C           7.2570   -4.8750   29.1580 C.3     1  UNL1        0.0035
      6 C           5.8180   -4.4810   28.8760 C.3     1  UNL1        0.0216
      7 C           5.7250   -3.3190   27.9010 C.3     1  UNL1        0.0934
      8 C           7.8860   -3.4460   22.0710 C.3     1  UNL1        0.0939
      9 C           7.2040   -2.8490   23.2860 C.3     1  UNL1        0.0306
     10 C           6.6680   -3.9560   24.2020 C.3     1  UNL1        0.0801
     11 C           5.7550   -4.8760   23.4090 C.3     1  UNL1        0.0306
     12 C           6.4920   -5.4430   22.2200 C.3     1  UNL1        0.0939
     13 C           5.9620   -3.4090   25.4230 C.2     1  UNL1        0.2253
     14 C           7.8990   -3.9200   26.9640 C.3     1  UNL1        0.0934
     15 C           7.9770   -5.1420   27.8510 C.3     1  UNL1        0.0216
     16 N           6.5040   -3.5620   26.6780 N.am    1  UNL1       -0.2795
     17 O           4.8800   -2.8430   25.2890 O.2     1  UNL1       -0.2749
@<TRIPOS>BOND
     1     4     3    2
     2     4     2    1
     3     4     1   am
     4     6     5    1
     5     7     6    1
     6     8     1    1
     7     9     8    1
     8    10     9    1
     9    11    10    1
    10    12     1    1
    11    12    11    1
    12    10    13    1
    13    15    14    1
    14    15     5    1
    15    16    14    1
    16    16    13   am
    17    16     7    1
    18    17    13    2
