@<TRIPOS>MOLECULE
*****
 27 31 0 0 0
SMALL
GASTEIGER

@<TRIPOS>ATOM
      1 O           9.4230    1.4070   21.0320 O.2     1  UNL1       -0.2742
      2 C           9.0000    0.4660   21.6870 C.2     1  UNL1        0.2325
      3 C           9.6980    0.0410   22.9810 C.3     1  UNL1        0.0946
      4 C           9.1250    0.9510   24.0950 C.3     1  UNL1        0.0601
      5 C           9.9560    2.1960   24.3110 C.3     1  UNL1        0.2062
      6 O          11.3210    1.8740   24.6050 O.3     1  UNL1       -0.4757
      7 C          11.2260    0.1770   22.8720 C.ar    1  UNL1        0.0203
      8 C          11.9270    1.1130   23.6400 C.ar    1  UNL1        0.1350
      9 C          13.2910    1.3070   23.4910 C.ar    1  UNL1        0.0374
     10 C          13.9860    0.5400   22.5730 C.ar    1  UNL1        0.0145
     11 C          11.9450   -0.6090   21.9710 C.ar    1  UNL1        0.0106
     12 C          13.3080   -0.4130   21.8370 C.ar    1  UNL1        0.0576
     13 CL         14.1920   -1.3850   20.6920 Cl      1  UNL1       -0.0823
     14 N           7.8600   -0.2050   21.3200 N.am    1  UNL1       -0.2570
     15 C           7.5060   -1.5550   21.7860 C.3     1  UNL1        0.0983
     16 C           8.6980   -2.2750   22.3800 C.3     1  UNL1        0.0227
     17 C           9.3990   -1.4130   23.4220 C.3     1  UNL1        0.0147
     18 C           7.0910    0.2270   20.1880 C.ar    1  UNL1        0.0730
     19 C           5.9160    1.0170   20.3740 C.ar    1  UNL1        0.0167
     20 C           5.3980    1.3870   21.6460 C.ar    1  UNL1        0.0013
     21 C           4.2860    2.1750   21.7500 C.ar    1  UNL1        0.0000
     22 C           3.6400    2.6450   20.6100 C.ar    1  UNL1        0.0001
     23 C           4.0910    2.3050   19.3650 C.ar    1  UNL1        0.0016
     24 C           5.2250    1.4720   19.2120 C.ar    1  UNL1        0.0204
     25 C           5.7190    1.0670   17.9490 C.ar    1  UNL1        0.0989
     26 N           6.7910    0.3080   17.7790 N.ar    1  UNL1       -0.2410
     27 C           7.4490   -0.0840   18.8780 C.ar    1  UNL1        0.1137
@<TRIPOS>BOND
     1     2     1    2
     2     3     2    1
     3     3     4    1
     4     5     4    1
     5     6     5    1
     6     7     3    1
     7     8     7   ar
     8     8     6    1
     9     9     8   ar
    10    10     9   ar
    11    11     7   ar
    12    12    11   ar
    13    12    10   ar
    14    13    12    1
    15    14     2   am
    16    15    14    1
    17    16    15    1
    18    17    16    1
    19    17     3    1
    20    18    14    1
    21    19    18   ar
    22    20    19   ar
    23    21    20   ar
    24    22    21   ar
    25    23    22   ar
    26    24    23   ar
    27    24    19   ar
    28    25    24   ar
    29    26    25   ar
    30    27    26   ar
    31    27    18   ar
