@<TRIPOS>MOLECULE
*****
 23 24 0 0 0
SMALL
GASTEIGER

@<TRIPOS>ATOM
      1 O           9.2180    0.9180   20.9910 O.2     1  UNL1       -0.2715
      2 C           8.5900   -0.0110   21.4930 C.2     1  UNL1        0.2620
      3 N           7.4020   -0.4580   21.0370 N.am    1  UNL1       -0.1765
      4 C           6.6960    0.0510   19.9280 C.ar    1  UNL1        0.0925
      5 C           7.2530   -0.0360   18.6530 C.ar    1  UNL1        0.1154
      6 N           6.7460    0.5810   17.5820 N.ar    1  UNL1       -0.2410
      7 C           5.6280    1.2910   17.7560 C.ar    1  UNL1        0.0990
      8 C           4.9750    1.4080   18.9710 C.ar    1  UNL1        0.0220
      9 C           5.5200    0.7770   20.0740 C.ar    1  UNL1        0.0198
     10 C           9.1360   -0.7650   22.6920 C.3     1  UNL1        0.1605
     11 N          10.5870   -0.6060   22.7830 N.3     1  UNL1       -0.2663
     12 C          11.2530   -1.9140   22.7180 C.3     1  UNL1        0.0725
     13 C          12.7530   -1.7600   22.5790 C.3     1  UNL1        0.0174
     14 C          13.3200   -0.9030   23.7010 C.3     1  UNL1        0.0028
     15 C          12.5500    0.4070   23.8700 C.3     1  UNL1        0.0161
     16 C          11.0450    0.1650   23.9600 C.3     1  UNL1        0.0594
     17 C          10.2420    1.4300   24.2800 C.3     1  UNL1        0.0368
     18 C          10.7120    2.7310   23.6510 C.3     1  UNL1        0.1165
     19 N          10.7790    3.7750   24.6800 N.3     1  UNL1       -0.0820
     20 S          10.6450    5.3420   24.3000 S.O2    1  UNL1        0.0592
     21 O          10.2620    6.0240   25.4980 O.2     1  UNL1       -0.1561
     22 O          11.8630    5.7190   23.6540 O.2     1  UNL1       -0.1561
     23 C           9.3410    5.4990   23.1420 C.3     1  UNL1        0.1975
@<TRIPOS>BOND
     1     2     1    2
     2     3     2   am
     3     4     3    1
     4     5     4   ar
     5     6     5   ar
     6     7     6   ar
     7     8     7   ar
     8     9     8   ar
     9     9     4   ar
    10    10     2    1
    11    11    10    1
    12    12    11    1
    13    13    12    1
    14    14    13    1
    15    15    14    1
    16    16    11    1
    17    16    15    1
    18    16    17    1
    19    18    17    1
    20    19    18    1
    21    20    19    1
    22    21    20    2
    23    22    20    2
    24    20    23    1
