@<TRIPOS>MOLECULE
*****
 32 35 0 0 0
SMALL
GASTEIGER

@<TRIPOS>ATOM
      1 O           8.9500    1.4820   20.8100 O.2     1  UNL1       -0.2742
      2 C           8.5560    0.5280   21.4660 C.2     1  UNL1        0.2341
      3 C           7.5470   -0.4470   20.8840 C.3     1  UNL1        0.1134
      4 C           6.7300    0.1380   19.7500 C.ar    1  UNL1        0.0061
      5 C           5.6510    1.0320   20.0080 C.ar    1  UNL1       -0.0005
      6 C           5.2500    1.4160   21.3170 C.ar    1  UNL1       -0.0002
      7 C           4.2240    2.2970   21.5080 C.ar    1  UNL1       -0.0000
      8 C           3.5410    2.8370   20.4230 C.ar    1  UNL1        0.0000
      9 C           3.8810    2.4910   19.1470 C.ar    1  UNL1        0.0015
     10 C           4.9450    1.5850   18.9050 C.ar    1  UNL1        0.0189
     11 C           5.3680    1.2060   17.6090 C.ar    1  UNL1        0.0988
     12 N           6.3690    0.3680   17.3700 N.ar    1  UNL1       -0.2426
     13 C           7.0140   -0.1460   18.4260 C.ar    1  UNL1        0.0951
     14 N           8.9890    0.3100   22.7420 N.am    1  UNL1       -0.2526
     15 C          10.0440    1.1660   23.2890 C.3     1  UNL1        0.1248
     16 C          11.3390    0.4330   23.5300 C.ar    1  UNL1       -0.0012
     17 C          12.0330   -0.1370   22.4690 C.ar    1  UNL1        0.0088
     18 C          13.1990   -0.8350   22.7120 C.ar    1  UNL1        0.0574
     19 CL         14.0610   -1.5270   21.3680 Cl      1  UNL1       -0.0823
     20 C          13.6990   -0.9940   23.9870 C.ar    1  UNL1        0.0114
     21 C          13.0080   -0.4260   25.0460 C.ar    1  UNL1        0.0006
     22 C          11.8390    0.2830   24.8160 C.ar    1  UNL1       -0.0025
     23 C           8.4100   -0.6540   23.6190 C.ar    1  UNL1        0.0734
     24 C           7.4120   -0.2670   24.5040 C.ar    1  UNL1        0.0194
     25 C           6.6990   -1.2260   25.1920 C.ar    1  UNL1        0.0375
     26 C           8.6660   -2.0120   23.4520 C.ar    1  UNL1        0.1152
     27 N           7.9850   -2.9590   24.1130 N.ar    1  UNL1       -0.2260
     28 C           7.0190   -2.5700   24.9670 C.ar    1  UNL1        0.1546
     29 N           6.3470   -3.6100   25.6250 N.am    1  UNL1       -0.1604
     30 C           5.3230   -3.5220   26.5170 C.2     1  UNL1        0.2474
     31 O           4.6010   -2.5270   26.6200 O.2     1  UNL1       -0.2729
     32 C           5.1350   -4.7310   27.3840 C.3     1  UNL1        0.0968
@<TRIPOS>BOND
     1     2     1    2
     2     3     2    1
     3     4     3    1
     4     5     4   ar
     5     6     5   ar
     6     7     6   ar
     7     8     7   ar
     8     9     8   ar
     9    10     9   ar
    10    10     5   ar
    11    11    10   ar
    12    12    11   ar
    13    13    12   ar
    14    13     4   ar
    15    14     2   am
    16    15    14    1
    17    16    15    1
    18    17    16   ar
    19    18    17   ar
    20    19    18    1
    21    20    18   ar
    22    21    20   ar
    23    22    21   ar
    24    22    16   ar
    25    23    14    1
    26    24    23   ar
    27    25    24   ar
    28    26    23   ar
    29    27    26   ar
    30    28    27   ar
    31    28    25   ar
    32    29    28    1
    33    30    29   am
    34    31    30    2
    35    32    30    1
