@<TRIPOS>MOLECULE
*****
 25 28 0 0 0
SMALL
GASTEIGER

@<TRIPOS>ATOM
      1 O           8.9590    0.9450   21.0990 O.2     1  UNL1       -0.2726
      2 C           8.4810   -0.1430   21.4180 C.2     1  UNL1        0.2498
      3 C           9.0650   -0.9820   22.5550 C.3     1  UNL1        0.1111
      4 C           8.2530   -0.7070   23.8300 C.3     1  UNL1        0.1007
      5 C           8.5570    0.6090   24.4930 C.2     1  UNL1        0.2464
      6 O           7.6900    1.2770   25.0500 O.2     1  UNL1       -0.2730
      7 N           9.8340    1.0320   24.4280 N.am    1  UNL1       -0.1795
      8 C          10.5180   -0.6490   22.8290 C.ar    1  UNL1        0.0029
      9 C          10.8430    0.4040   23.6980 C.ar    1  UNL1        0.0699
     10 C          12.1770    0.7810   23.8770 C.ar    1  UNL1        0.0172
     11 C          13.1810    0.1360   23.1750 C.ar    1  UNL1        0.0127
     12 C          11.5410   -1.3040   22.1510 C.ar    1  UNL1        0.0089
     13 C          12.8470   -0.8870   22.3140 C.ar    1  UNL1        0.0575
     14 CL         14.0870   -1.6080   21.3260 Cl      1  UNL1       -0.0823
     15 N           7.4050   -0.6920   20.8070 N.am    1  UNL1       -0.1774
     16 C           6.6090   -0.1210   19.7950 C.ar    1  UNL1        0.0925
     17 C           5.4940    0.6870   20.1810 C.ar    1  UNL1        0.0184
     18 C           5.0720    0.8580   21.5290 C.ar    1  UNL1        0.0014
     19 C           4.0110    1.6640   21.8360 C.ar    1  UNL1        0.0000
     20 C           3.3220    2.3370   20.8340 C.ar    1  UNL1        0.0001
     21 C           3.6830    2.1980   19.5220 C.ar    1  UNL1        0.0016
     22 C           4.7770    1.3710   19.1600 C.ar    1  UNL1        0.0204
     23 C           5.2100    1.1990   17.8210 C.ar    1  UNL1        0.0989
     24 N           6.2390    0.4460   17.4630 N.ar    1  UNL1       -0.2410
     25 C           6.9050   -0.1960   18.4340 C.ar    1  UNL1        0.1154
@<TRIPOS>BOND
     1     2     1    2
     2     3     2    1
     3     4     3    1
     4     5     4    1
     5     6     5    2
     6     7     5   am
     7     8     3    1
     8     9     8   ar
     9     9     7    1
    10    10     9   ar
    11    11    10   ar
    12    12     8   ar
    13    13    12   ar
    14    13    11   ar
    15    14    13    1
    16    15     2   am
    17    16    15    1
    18    17    16   ar
    19    18    17   ar
    20    19    18   ar
    21    20    19   ar
    22    21    20   ar
    23    22    21   ar
    24    22    17   ar
    25    23    22   ar
    26    24    23   ar
    27    25    24   ar
    28    25    16   ar
