@<TRIPOS>MOLECULE
*****
 19 21 0 0 0
SMALL
GASTEIGER

@<TRIPOS>ATOM
      1 C           6.9430   -3.2740   20.0790 C.2     1  UNL1        0.2264
      2 C           7.4470   -2.6450   18.8100 C.3     1  UNL1        0.0948
      3 C           6.6270   -3.1050   22.5050 C.3     1  UNL1        0.1198
      4 C           7.6090   -3.6490   23.5050 C.ar    1  UNL1       -0.0059
      5 C           7.1470   -4.4820   24.5260 C.ar    1  UNL1       -0.0029
      6 C           8.0220   -4.9990   25.4630 C.ar    1  UNL1       -0.0003
      7 C           9.3670   -4.6950   25.3930 C.ar    1  UNL1       -0.0003
      8 C           9.8390   -3.8700   24.3840 C.ar    1  UNL1       -0.0042
      9 C           8.9680   -3.3270   23.4310 C.ar    1  UNL1       -0.0191
     10 C           9.5150   -2.4330   22.3230 C.3     1  UNL1        0.0641
     11 C          10.4870   -1.3800   22.8160 C.ar    1  UNL1       -0.0168
     12 C          11.7690   -1.2910   22.2900 C.ar    1  UNL1       -0.0039
     13 C          12.6570   -0.3290   22.7430 C.ar    1  UNL1       -0.0003
     14 C          12.2750    0.5620   23.7200 C.ar    1  UNL1       -0.0000
     15 C          11.0080    0.4920   24.2490 C.ar    1  UNL1       -0.0003
     16 C          10.1180   -0.4730   23.8010 C.ar    1  UNL1       -0.0039
     17 C           8.4050   -1.7800   21.5040 C.3     1  UNL1        0.1024
     18 N           7.3160   -2.7300   21.2690 N.am    1  UNL1       -0.2748
     19 O           6.2070   -4.2490   20.0070 O.2     1  UNL1       -0.2748
@<TRIPOS>BOND
     1     2     1    1
     2     4     3    1
     3     5     4   ar
     4     6     5   ar
     5     7     6   ar
     6     8     7   ar
     7     9     8   ar
     8     9     4   ar
     9    10     9    1
    10    10    11    1
    11    12    11   ar
    12    13    12   ar
    13    14    13   ar
    14    15    14   ar
    15    16    11   ar
    16    16    15   ar
    17    17    10    1
    18    18    17    1
    19    18     1   am
    20    18     3    1
    21    19     1    2
