@<TRIPOS>MOLECULE
*****
 20 21 0 0 0
SMALL
GASTEIGER

@<TRIPOS>ATOM
      1 CL         13.8710   -1.8970   21.2100 Cl      1  UNL1       -0.0823
      2 C          12.7300   -1.0490   22.2150 C.ar    1  UNL1        0.0574
      3 C          13.1930   -0.1730   23.1760 C.ar    1  UNL1        0.0114
      4 C          12.2790    0.4260   24.0270 C.ar    1  UNL1        0.0006
      5 C          10.9230    0.1640   23.8900 C.ar    1  UNL1       -0.0037
      6 C          11.3840   -1.3080   22.0590 C.ar    1  UNL1        0.0077
      7 C          10.4630   -0.6910   22.8980 C.ar    1  UNL1       -0.0104
      8 C           8.9770   -0.9380   22.6830 C.3     1  UNL1        0.1337
      9 C           8.1580   -0.9020   23.9710 C.3     1  UNL1        0.1956
     10 O           6.8000   -1.2200   23.6900 O.3     1  UNL1       -0.2195
     11 C           8.4580    0.0360   21.6250 C.2     1  UNL1        0.2518
     12 O           8.7840    1.2140   21.6070 O.2     1  UNL1       -0.2726
     13 N           7.7050   -0.5270   20.6630 N.am    1  UNL1       -0.1776
     14 C           6.7100   -0.0620   19.7810 C.ar    1  UNL1        0.0885
     15 C           5.6590    0.7800   20.1880 C.ar    1  UNL1       -0.0034
     16 C           5.2640    0.9280   21.6350 C.3     1  UNL1        0.0325
     17 C           6.9850   -0.1670   18.4200 C.ar    1  UNL1        0.1151
     18 N           6.3230    0.5040   17.4770 N.ar    1  UNL1       -0.2410
     19 C           5.3060    1.2770   17.8730 C.ar    1  UNL1        0.0987
     20 C           4.9450    1.4380   19.1960 C.ar    1  UNL1        0.0177
@<TRIPOS>BOND
     1     2     1    1
     2     3     2   ar
     3     4     3   ar
     4     5     4   ar
     5     6     2   ar
     6     7     6   ar
     7     7     5   ar
     8     8     7    1
     9     8     9    1
    10    10     9    1
    11    11     8    1
    12    12    11    2
    13    13    11   am
    14    14    13    1
    15    15    14   ar
    16    16    15    1
    17    17    14   ar
    18    18    17   ar
    19    19    18   ar
    20    20    19   ar
    21    20    15   ar
