@<TRIPOS>MOLECULE
*****
 21 23 0 0 0
SMALL
GASTEIGER

@<TRIPOS>ATOM
      1 O           9.0030    1.0090   21.1060 O.2     1  UNL1       -0.2726
      2 C           8.4850   -0.0590   21.4360 C.2     1  UNL1        0.2500
      3 C           8.9960   -0.8690   22.6110 C.3     1  UNL1        0.1135
      4 C          10.4480   -0.5900   22.9180 C.ar    1  UNL1       -0.0129
      5 C          11.4560   -1.1290   22.1300 C.ar    1  UNL1       -0.0015
      6 C          12.7830   -0.7960   22.3380 C.ar    1  UNL1        0.0293
      7 C          10.8040    0.2550   23.9610 C.ar    1  UNL1       -0.0015
      8 C          12.1270    0.5930   24.1890 C.ar    1  UNL1        0.0293
      9 C          13.0790    0.0800   23.3470 C.ar    1  UNL1        0.1401
     10 F          14.3550    0.5240   23.4660 F       1  UNL1       -0.2042
     11 N           7.4210   -0.6030   20.8060 N.am    1  UNL1       -0.1773
     12 C           6.6470   -0.0460   19.7680 C.ar    1  UNL1        0.0925
     13 C           5.5130    0.7520   20.1180 C.ar    1  UNL1        0.0184
     14 C           5.0670    0.9510   21.4530 C.ar    1  UNL1        0.0014
     15 C           3.9980    1.7560   21.7230 C.ar    1  UNL1        0.0000
     16 C           3.3190    2.4010   20.6980 C.ar    1  UNL1        0.0001
     17 C           3.7050    2.2380   19.3970 C.ar    1  UNL1        0.0016
     18 C           4.8100    1.4120   19.0710 C.ar    1  UNL1        0.0204
     19 C           5.2790    1.2310   17.7470 C.ar    1  UNL1        0.0989
     20 N           6.3300    0.4950   17.4230 N.ar    1  UNL1       -0.2410
     21 C           6.9780   -0.1300   18.4150 C.ar    1  UNL1        0.1154
@<TRIPOS>BOND
     1     2     1    2
     2     3     2    1
     3     4     3    1
     4     5     4   ar
     5     6     5   ar
     6     7     4   ar
     7     8     7   ar
     8     9     8   ar
     9     9     6   ar
    10    10     9    1
    11    11     2   am
    12    12    11    1
    13    13    12   ar
    14    14    13   ar
    15    15    14   ar
    16    16    15   ar
    17    17    16   ar
    18    18    17   ar
    19    18    13   ar
    20    19    18   ar
    21    20    19   ar
    22    21    20   ar
    23    21    12   ar
