@<TRIPOS>MOLECULE
*****
 23 24 0 0 0
SMALL
GASTEIGER

@<TRIPOS>ATOM
      1 O          11.3710    5.5510   24.0820 O.2     1  UNL1       -0.1337
      2 S          10.7460    4.2710   24.0950 S.O2    1  UNL1        0.1633
      3 O           9.9530    3.8970   25.2190 O.2     1  UNL1       -0.1337
      4 N           9.7850    4.2210   22.7970 N.3     1  UNL1        0.0563
      5 N          11.8470    3.0720   23.8900 N.pl3   1  UNL1       -0.0834
      6 C          11.6730    1.6770   23.5580 C.ar    1  UNL1        0.0927
      7 C          12.7930    0.9270   23.1980 C.ar    1  UNL1        0.0295
      8 C          12.6080   -0.3590   22.7210 C.ar    1  UNL1        0.0587
      9 CL         13.9910   -1.2690   22.1770 Cl      1  UNL1       -0.0822
     10 C          11.3570   -0.9260   22.6130 C.ar    1  UNL1        0.0077
     11 C          10.4060    1.0980   23.4820 C.ar    1  UNL1        0.0144
     12 C          10.2380   -0.1930   22.9850 C.ar    1  UNL1       -0.0108
     13 C           8.8540   -0.7380   22.7060 C.3     1  UNL1        0.1135
     14 C           8.2810   -0.0930   21.4590 C.2     1  UNL1        0.2500
     15 O           8.8480    0.8400   20.9110 O.2     1  UNL1       -0.2726
     16 N           7.1020   -0.5910   21.0270 N.am    1  UNL1       -0.1777
     17 C           6.4380   -0.0290   19.9060 C.ar    1  UNL1        0.0885
     18 C           5.2970    0.7740   20.0940 C.ar    1  UNL1       -0.0034
     19 C           4.6770    0.9780   21.4540 C.3     1  UNL1        0.0325
     20 C           6.9420   -0.1710   18.6110 C.ar    1  UNL1        0.1151
     21 N           6.4260    0.4440   17.5430 N.ar    1  UNL1       -0.2410
     22 C           5.3430    1.2050   17.7360 C.ar    1  UNL1        0.0987
     23 C           4.7540    1.3900   18.9710 C.ar    1  UNL1        0.0177
@<TRIPOS>BOND
     1     2     1    2
     2     3     2    2
     3     2     4    1
     4     5     2    1
     5     6     5    1
     6     7     6   ar
     7     8     7   ar
     8     9     8    1
     9    10     8   ar
    10    11     6   ar
    11    12    11   ar
    12    12    10   ar
    13    13    12    1
    14    14    13    1
    15    15    14    2
    16    16    14   am
    17    17    16    1
    18    18    17   ar
    19    19    18    1
    20    20    17   ar
    21    21    20   ar
    22    22    21   ar
    23    23    22   ar
    24    23    18   ar
