@<TRIPOS>MOLECULE
*****
 33 37 0 0 0
SMALL
GASTEIGER

@<TRIPOS>ATOM
      1 N           8.8590    6.8480   22.2920 N.1     1  UNL1       -0.1958
      2 C           8.0800    6.0510   22.5350 C.1     1  UNL1        0.0751
      3 C           7.1050    5.0030   22.8780 C.3     1  UNL1        0.1268
      4 C           7.0510    4.6820   24.3940 C.3     1  UNL1        0.1134
      5 C           7.5310    3.5290   22.6600 C.3     1  UNL1        0.1134
      6 N           7.6850    3.3610   24.1310 N.3     1  UNL1       -0.1431
      7 S           7.6810    2.0430   25.0430 S.O2    1  UNL1        0.1024
      8 O           8.0820    2.4510   26.3450 O.2     1  UNL1       -0.1408
      9 O           6.4540    1.3510   24.8480 O.2     1  UNL1       -0.1408
     10 N           8.8490    1.1140   24.4720 N.3     1  UNL1       -0.1401
     11 C          10.2440    1.3260   24.8770 C.3     1  UNL1        0.1229
     12 C           8.5170   -0.2990   24.2130 C.3     1  UNL1        0.1108
     13 C           9.2690   -0.7390   22.9570 C.3     1  UNL1        0.1182
     14 C          10.7510   -0.4200   23.0780 C.ar    1  UNL1       -0.0142
     15 C          11.1840    0.5950   23.9470 C.ar    1  UNL1       -0.0078
     16 C          12.5320    0.9520   23.9590 C.ar    1  UNL1       -0.0023
     17 C          13.4460    0.3200   23.1390 C.ar    1  UNL1        0.0111
     18 C          11.6870   -1.0840   22.2810 C.ar    1  UNL1        0.0074
     19 C          13.0170   -0.6980   22.3230 C.ar    1  UNL1        0.0574
     20 CL         14.1740   -1.5220   21.3150 Cl      1  UNL1       -0.0823
     21 C           8.7010   -0.0090   21.7350 C.2     1  UNL1        0.2507
     22 O           9.2660    0.9640   21.2400 O.2     1  UNL1       -0.2726
     23 N           7.5250   -0.5110   21.2580 N.am    1  UNL1       -0.1773
     24 C           6.7650   -0.0500   20.1480 C.ar    1  UNL1        0.0925
     25 C           5.6080    0.7700   20.3750 C.ar    1  UNL1        0.0184
     26 C           5.0700    1.0420   21.6600 C.ar    1  UNL1        0.0014
     27 C           3.9570    1.8250   21.8080 C.ar    1  UNL1        0.0000
     28 C           3.3290    2.3800   20.6990 C.ar    1  UNL1        0.0001
     29 C           3.8080    2.1500   19.4420 C.ar    1  UNL1        0.0016
     30 C           4.9500    1.3320   19.2420 C.ar    1  UNL1        0.0204
     31 C           5.4620    1.0220   17.9580 C.ar    1  UNL1        0.0989
     32 N           6.5140    0.2420   17.7450 N.ar    1  UNL1       -0.2410
     33 C           7.1370   -0.2660   18.8200 C.ar    1  UNL1        0.1154
@<TRIPOS>BOND
     1     2     1    3
     2     3     2    1
     3     4     3    1
     4     5     3    1
     5     6     5    1
     6     6     4    1
     7     7     6    1
     8     8     7    2
     9     9     7    2
    10    10     7    1
    11    11    10    1
    12    12    10    1
    13    13    12    1
    14    14    13    1
    15    15    14   ar
    16    15    11    1
    17    16    15   ar
    18    17    16   ar
    19    18    14   ar
    20    19    18   ar
    21    19    17   ar
    22    20    19    1
    23    13    21    1
    24    22    21    2
    25    23    21   am
    26    24    23    1
    27    25    24   ar
    28    26    25   ar
    29    27    26   ar
    30    28    27   ar
    31    29    28   ar
    32    30    29   ar
    33    30    25   ar
    34    31    30   ar
    35    32    31   ar
    36    33    32   ar
    37    33    24   ar
