@<TRIPOS>MOLECULE
*****
 20 21 0 0 0
SMALL
GASTEIGER

@<TRIPOS>ATOM
      1 F           8.7850   -2.2230   22.4770 F       1  UNL1       -0.1897
      2 C          10.9030    0.2220   23.9380 C.ar    1  UNL1        0.0015
      3 N           6.4810    0.6070   17.5530 N.ar    1  UNL1       -0.2410
      4 C          12.7570   -1.0050   22.3270 C.ar    1  UNL1        0.0575
      5 C           5.5100    0.8440   20.1760 C.ar    1  UNL1       -0.0034
      6 C          13.1900   -0.0910   23.2670 C.ar    1  UNL1        0.0114
      7 C           5.0020    1.0270   21.5840 C.3     1  UNL1        0.0325
      8 C          10.4760   -0.6710   22.9620 C.ar    1  UNL1        0.0474
      9 C           4.8890    1.4870   19.1100 C.ar    1  UNL1        0.0177
     10 C           8.4930   -0.0930   21.4930 C.2     1  UNL1        0.3110
     11 N           7.3550   -0.5600   20.9400 N.am    1  UNL1       -0.1731
     12 O           9.0970    0.9010   21.1160 O.2     1  UNL1       -0.2667
     13 C           6.6420    0.0630   19.8890 C.ar    1  UNL1        0.0887
     14 C           9.0100   -0.9000   22.7050 C.3     1  UNL1        0.3509
     15 C           7.0790   -0.0250   18.5690 C.ar    1  UNL1        0.1151
     16 C          12.2510    0.5110   24.0900 C.ar    1  UNL1        0.0007
     17 C          11.4220   -1.3090   22.1690 C.ar    1  UNL1        0.0128
     18 C           5.4000    1.3440   17.8360 C.ar    1  UNL1        0.0987
     19 F           8.2550   -0.5820   23.7960 F       1  UNL1       -0.1897
     20 CL         13.9250   -1.8130   21.3220 Cl      1  UNL1       -0.0823
@<TRIPOS>BOND
     1     6     4   ar
     2     7     5    1
     3     8     2   ar
     4     9     5   ar
     5    11    10   am
     6    12    10    2
     7    13    11    1
     8    13     5   ar
     9    14    10    1
    10    14     8    1
    11    14     1    1
    12    15    13   ar
    13    15     3   ar
    14    16     6   ar
    15    16     2   ar
    16    17     8   ar
    17    17     4   ar
    18    18     9   ar
    19    18     3   ar
    20    19    14    1
    21    20     4    1
