@<TRIPOS>MOLECULE
*****
 30 33 0 0 0
SMALL
GASTEIGER

@<TRIPOS>ATOM
      1 O          10.7190    3.1260   24.3960 O.2     1  UNL1       -0.2699
      2 C          10.3770    1.9840   24.1520 C.2     1  UNL1        0.2491
      3 N           9.0840    1.5480   24.3620 N.am    1  UNL1       -0.2669
      4 C           8.1760    2.3610   25.1500 C.3     1  UNL1        0.1811
      5 C           7.3080    3.3310   24.3650 C.2     1  UNL1        0.2617
      6 O           6.3200    3.8410   24.8910 O.2     1  UNL1       -0.2715
      7 N           7.6580    3.5890   23.1090 N.am    1  UNL1       -0.2021
      8 C           6.8660    4.4400   22.2410 C.3     1  UNL1        0.1386
      9 C          11.2900    1.0310   23.4920 C.ar    1  UNL1        0.0502
     10 C          12.6370    1.3690   23.3310 C.ar    1  UNL1        0.0051
     11 C          13.5040    0.5020   22.6900 C.ar    1  UNL1        0.0115
     12 C          13.0200   -0.6980   22.2100 C.ar    1  UNL1        0.0574
     13 CL         14.0970   -1.7670   21.3540 Cl      1  UNL1       -0.0823
     14 C          11.6900   -1.0510   22.3440 C.ar    1  UNL1        0.0078
     15 C          10.8010   -0.1690   22.9590 C.ar    1  UNL1       -0.0069
     16 C           9.3130   -0.4530   22.9440 C.3     1  UNL1        0.1207
     17 C           8.6680    0.1530   24.1920 C.3     1  UNL1        0.1077
     18 C           8.7040    0.2110   21.7060 C.2     1  UNL1        0.2509
     19 O           9.1510    1.2610   21.2400 O.2     1  UNL1       -0.2726
     20 N           7.6130   -0.4130   21.2000 N.am    1  UNL1       -0.1773
     21 C           6.8140    0.0040   20.1070 C.ar    1  UNL1        0.0925
     22 C           5.6940    0.8600   20.3580 C.ar    1  UNL1        0.0184
     23 C           5.2210    1.1840   21.6580 C.ar    1  UNL1        0.0014
     24 C           4.1290    1.9880   21.8290 C.ar    1  UNL1        0.0000
     25 C           3.4630    2.5220   20.7330 C.ar    1  UNL1        0.0001
     26 C           3.8780    2.2410   19.4620 C.ar    1  UNL1        0.0016
     27 C           4.9940    1.3950   19.2380 C.ar    1  UNL1        0.0204
     28 C           5.4390    1.0270   17.9450 C.ar    1  UNL1        0.0989
     29 N           6.4640    0.2170   17.7130 N.ar    1  UNL1       -0.2410
     30 C           7.1180   -0.2750   18.7740 C.ar    1  UNL1        0.1154
@<TRIPOS>BOND
     1     2     1    2
     2     3     2   am
     3     4     3    1
     4     5     4    1
     5     6     5    2
     6     7     5   am
     7     8     7    1
     8     9     2    1
     9    10     9   ar
    10    11    10   ar
    11    12    11   ar
    12    13    12    1
    13    14    12   ar
    14    15    14   ar
    15    15     9   ar
    16    16    15    1
    17    17    16    1
    18    17     3    1
    19    16    18    1
    20    19    18    2
    21    20    18   am
    22    21    20    1
    23    22    21   ar
    24    23    22   ar
    25    24    23   ar
    26    25    24   ar
    27    26    25   ar
    28    27    26   ar
    29    27    22   ar
    30    28    27   ar
    31    29    28   ar
    32    30    29   ar
    33    30    21   ar
