@<TRIPOS>MOLECULE
*****
 21 22 0 0 0
SMALL
GASTEIGER

@<TRIPOS>ATOM
      1 CL         14.0040   -1.9130   21.3910 Cl      1  UNL1       -0.0823
      2 C          12.9070   -0.7560   22.0770 C.ar    1  UNL1        0.0574
      3 C          13.3970    0.4460   22.5440 C.ar    1  UNL1        0.0114
      4 C          12.5100    1.3530   23.1010 C.ar    1  UNL1        0.0006
      5 C          11.1600    1.0450   23.1890 C.ar    1  UNL1       -0.0038
      6 C          11.5680   -1.0770   22.1580 C.ar    1  UNL1        0.0076
      7 C          10.6760   -0.1720   22.7200 C.ar    1  UNL1       -0.0130
      8 C           9.1940   -0.5150   22.7640 C.3     1  UNL1        0.1007
      9 C           8.5560   -0.4290   24.1930 C.3     1  UNL1        0.0128
     10 C           8.8990    0.8610   24.9150 C.3     1  UNL1        0.0008
     11 C           7.0460   -0.6390   24.1730 C.3     1  UNL1        0.0008
     12 C           8.4570    0.2980   21.6990 C.2     1  UNL1        0.2492
     13 O           8.7820    1.4480   21.4260 O.2     1  UNL1       -0.2726
     14 N           7.5030   -0.3760   21.0220 N.am    1  UNL1       -0.1777
     15 C           6.7830    0.1590   19.9260 C.ar    1  UNL1        0.0885
     16 C           5.6050    0.9040   20.1520 C.ar    1  UNL1       -0.0034
     17 C           5.0250    1.0880   21.5310 C.3     1  UNL1        0.0325
     18 C           4.9920    1.4790   19.0430 C.ar    1  UNL1        0.0177
     19 C           5.5430    1.3020   17.7900 C.ar    1  UNL1        0.0987
     20 N           6.6510    0.5920   17.5620 N.ar    1  UNL1       -0.2410
     21 C           7.2520    0.0300   18.6180 C.ar    1  UNL1        0.1151
@<TRIPOS>BOND
     1     2     1    1
     2     3     2   ar
     3     4     3   ar
     4     5     4   ar
     5     6     2   ar
     6     7     6   ar
     7     7     5   ar
     8     8     7    1
     9     9     8    1
    10     9    10    1
    11    11     9    1
    12     8    12    1
    13    13    12    2
    14    14    12   am
    15    15    14    1
    16    16    15   ar
    17    17    16    1
    18    18    16   ar
    19    19    18   ar
    20    20    19   ar
    21    21    20   ar
    22    21    15   ar
