@<TRIPOS>MOLECULE
*****
 18 19 0 0 0
SMALL
GASTEIGER

@<TRIPOS>ATOM
      1 C           7.1400   -2.4960   18.5550 C.3     1  UNL1        0.0542
      2 C           6.5890   -3.2670   19.7410 C.3     1  UNL1        0.2128
      3 O           5.8260   -4.2050   19.5680 O.3     1  UNL1       -0.2050
      4 N           7.0790   -2.9610   20.9590 N.3     1  UNL1       -0.2455
      5 C           7.1200   -4.0170   21.9850 C.3     1  UNL1        0.0917
      6 C           6.9270   -3.4420   23.3840 C.3     1  UNL1        0.0897
      7 C           7.8180   -1.7180   21.2450 C.3     1  UNL1        0.0917
      8 C           7.5800   -1.2560   22.6740 C.3     1  UNL1        0.0897
      9 N           7.8610   -2.3360   23.6300 N.3     1  UNL1       -0.2703
     10 C           9.2690   -2.7750   23.5830 C.3     1  UNL1        0.0723
     11 C          10.2640   -1.6810   23.8930 C.3     1  UNL1        0.0197
     12 C          11.3810   -1.4840   23.0860 C.3     1  UNL1        0.0178
     13 C          12.2540   -0.4520   23.3730 C.3     1  UNL1        0.0825
     14 CL         13.7370   -0.3210   22.4680 Cl      1  UNL1       -0.1149
     15 C          12.0300    0.4240   24.4160 C.3     1  UNL1        0.0491
     16 C          10.0530   -0.8340   24.9750 C.3     1  UNL1        0.0343
     17 C          10.9200    0.2180   25.2210 C.3     1  UNL1        0.1533
     18 O          10.6570    1.0510   26.2660 O.3     1  UNL1       -0.2231
@<TRIPOS>BOND
     1     2     1    1
     2     3     2    1
     3     4     2    1
     4     5     4    1
     5     6     5    1
     6     7     4    1
     7     8     7    1
     8     9     8    1
     9     9     6    1
    10    10     9    1
    11    11    10    1
    12    12    11    1
    13    13    12    1
    14    13    14    1
    15    15    13    1
    16    16    11    1
    17    17    16    1
    18    17    15    1
    19    18    17    1
