@<TRIPOS>MOLECULE
*****
 22 25 0 0 0
SMALL
GASTEIGER

@<TRIPOS>ATOM
      1 O           9.2590    1.1520   21.0910 O.2     1  UNL1       -0.2726
      2 C           8.7600    0.0990   21.4640 C.2     1  UNL1        0.2511
      3 N           7.7460   -0.5090   20.7660 N.am    1  UNL1       -0.1430
      4 C           7.2290   -0.0480   19.5730 C.ar    1  UNL1        0.2445
      5 N           5.9740    0.4880   19.4720 N.ar    1  UNL1       -0.2815
      6 C           4.9930    0.7020   20.5530 C.3     1  UNL1        0.0898
      7 C           5.1320    1.9170   21.4000 C.3     1  UNL1        0.0246
      8 C           4.0210    1.8180   20.4060 C.3     1  UNL1        0.0246
      9 C           5.8570    0.8390   18.1600 C.ar    1  UNL1        0.2036
     10 N           6.9430    0.5620   17.5030 N.ar    1  UNL1       -0.1242
     11 N           7.8280   -0.0130   18.3970 N.ar    1  UNL1       -0.1107
     12 C           9.2120   -0.5780   22.7770 C.3     1  UNL1        0.0961
     13 C           8.9430   -2.0920   22.8910 C.3     1  UNL1        0.0138
     14 C          10.7290   -0.3950   22.8030 C.ar    1  UNL1        0.0196
     15 C          11.5330   -1.0030   21.8490 C.ar    1  UNL1       -0.0008
     16 C          12.8940   -0.7490   21.8040 C.ar    1  UNL1       -0.0001
     17 C          13.4710    0.1130   22.7100 C.ar    1  UNL1        0.0031
     18 C          12.6980    0.7200   23.6890 C.ar    1  UNL1        0.0366
     19 C          11.3390    0.4460   23.7350 C.ar    1  UNL1        0.1349
     20 O          10.6470    1.0130   24.7740 O.3     1  UNL1       -0.4757
     21 C           9.2940    1.3610   24.4260 C.3     1  UNL1        0.2062
     22 C           8.5140    0.1520   23.9530 C.3     1  UNL1        0.0602
@<TRIPOS>BOND
     1     2     1    2
     2     3     2   am
     3     4     3    1
     4     5     4   ar
     5     6     5    1
     6     7     6    1
     7     8     7    1
     8     8     6    1
     9     9     5   ar
    10    10     9   ar
    11    11    10   ar
    12    11     4   ar
    13    12     2    1
    14    12    13    1
    15    14    12    1
    16    15    14   ar
    17    16    15   ar
    18    17    16   ar
    19    18    17   ar
    20    19    14   ar
    21    19    18   ar
    22    20    19    1
    23    21    20    1
    24    22    21    1
    25    22    12    1
