
     RDKit          3D

 20 22  0  0  0  0  0  0  0  0999 V2000
    9.3880    1.0930   21.2460 O   0  0  0  0  0  0  0  0  0  0  0  0
    8.8560    0.0940   21.7220 C   0  0  0  0  0  0  0  0  0  0  0  0
    9.3330   -0.5400   23.0150 C   0  0  0  0  0  0  0  0  0  0  0  0
   10.8280   -0.4290   23.2220 C   0  0  0  0  0  0  0  0  0  0  0  0
   11.3490    0.2950   24.2880 C   0  0  0  0  0  0  0  0  0  0  0  0
   12.7190    0.4430   24.4420 C   0  0  0  0  0  0  0  0  0  0  0  0
   13.5920   -0.1280   23.5270 C   0  0  0  0  0  0  0  0  0  0  0  0
   11.7050   -1.0180   22.3170 C   0  0  0  0  0  0  0  0  0  0  0  0
   13.0670   -0.8500   22.4770 C   0  0  0  0  0  0  0  0  0  0  0  0
   14.1440   -1.5380   21.2960 Cl  0  0  0  0  0  0  0  0  0  0  0  0
    7.7860   -0.5220   21.1390 N   0  0  0  0  0  0  0  0  0  0  0  0
    7.1790   -0.1070   19.9500 C   0  0  0  0  0  0  0  0  0  0  0  0
    6.0420    0.6750   19.9680 N   0  0  0  0  0  0  0  0  0  0  0  0
    5.7050    0.9030   18.6330 C   0  0  0  0  0  0  0  0  0  0  0  0
    6.5750    0.3110   17.8160 N   0  0  0  0  0  0  0  0  0  0  0  0
    7.4800   -0.3100   18.6440 C   0  0  0  0  0  0  0  0  0  0  0  0
    5.3150    1.2190   21.0100 C   0  0  0  0  0  0  0  0  0  0  0  0
    4.2450    2.0000   20.7380 C   0  0  0  0  0  0  0  0  0  0  0  0
    3.8670    2.2470   19.3950 C   0  0  0  0  0  0  0  0  0  0  0  0
    4.5750    1.7090   18.3580 C   0  0  0  0  0  0  0  0  0  0  0  0
  2  1  2  0
  3  2  1  0
  4  3  1  0
  5  4  2  0
  6  5  1  0
  7  6  2  0
  8  4  1  0
  9  8  2  0
  9  7  1  0
 10  9  1  0
 11  2  1  0
 12 11  1  0
 13 12  1  0
 14 13  1  0
 15 14  2  0
 16 15  1  0
 16 12  2  0
 17 13  1  0
 18 17  2  0
 19 18  1  0
 20 19  2  0
 20 14  1  0
M  END
