@<TRIPOS>MOLECULE
*****
 20 22 0 0 0
SMALL
GASTEIGER

@<TRIPOS>ATOM
      1 O           9.3880    1.0930   21.2460 O.2     1  UNL1       -0.2726
      2 C           8.8560    0.0940   21.7220 C.2     1  UNL1        0.2513
      3 C           9.3330   -0.5400   23.0150 C.3     1  UNL1        0.1135
      4 C          10.8280   -0.4290   23.2220 C.ar    1  UNL1       -0.0122
      5 C          11.3490    0.2950   24.2880 C.ar    1  UNL1       -0.0037
      6 C          12.7190    0.4430   24.4420 C.ar    1  UNL1        0.0006
      7 C          13.5920   -0.1280   23.5270 C.ar    1  UNL1        0.0114
      8 C          11.7050   -1.0180   22.3170 C.ar    1  UNL1        0.0076
      9 C          13.0670   -0.8500   22.4770 C.ar    1  UNL1        0.0574
     10 CL         14.1440   -1.5380   21.2960 Cl      1  UNL1       -0.0823
     11 N           7.7860   -0.5220   21.1390 N.am    1  UNL1       -0.1598
     12 C           7.1790   -0.1070   19.9500 C.ar    1  UNL1        0.1601
     13 N           6.0420    0.6750   19.9680 N.ar    1  UNL1       -0.2759
     14 C           5.7050    0.9030   18.6330 C.ar    1  UNL1        0.1488
     15 N           6.5750    0.3110   17.8160 N.ar    1  UNL1       -0.2234
     16 C           7.4800   -0.3100   18.6440 C.ar    1  UNL1        0.1352
     17 C           5.3150    1.2190   21.0100 C.ar    1  UNL1        0.0827
     18 C           4.2450    2.0000   20.7380 C.ar    1  UNL1        0.0192
     19 C           3.8670    2.2470   19.3950 C.ar    1  UNL1        0.0046
     20 C           4.5750    1.7090   18.3580 C.ar    1  UNL1        0.0375
@<TRIPOS>BOND
     1     2     1    2
     2     3     2    1
     3     4     3    1
     4     5     4   ar
     5     6     5   ar
     6     7     6   ar
     7     8     4   ar
     8     9     8   ar
     9     9     7   ar
    10    10     9    1
    11    11     2   am
    12    12    11    1
    13    13    12   ar
    14    14    13   ar
    15    15    14   ar
    16    16    15   ar
    17    16    12   ar
    18    17    13   ar
    19    18    17   ar
    20    19    18   ar
    21    20    19   ar
    22    20    14   ar
