@<TRIPOS>MOLECULE
*****
 23 26 0 0 0
SMALL
GASTEIGER

@<TRIPOS>ATOM
      1 O           9.2620    1.1370   20.9780 O.2     1  UNL1       -0.2742
      2 C           8.7720    0.0320   21.1540 C.2     1  UNL1        0.2330
      3 C           9.4420   -1.1930   21.7520 C.3     1  UNL1        0.1010
      4 C          10.7590   -0.8820   22.4430 C.ar    1  UNL1       -0.0130
      5 C          10.9030    0.0770   23.4370 C.ar    1  UNL1       -0.0038
      6 C          12.1640    0.5210   23.8110 C.ar    1  UNL1        0.0006
      7 C          13.2970    0.0180   23.1830 C.ar    1  UNL1        0.0114
      8 C          11.8940   -1.4360   21.8680 C.ar    1  UNL1        0.0076
      9 C          13.1360   -0.9480   22.2030 C.ar    1  UNL1        0.0574
     10 CL         14.5080   -1.4430   21.2480 Cl      1  UNL1       -0.0823
     11 N           7.4950   -0.3480   20.8880 N.am    1  UNL1       -0.2569
     12 C           7.0930   -1.5260   21.6850 C.3     1  UNL1        0.0991
     13 C           8.3060   -1.7720   22.5970 C.3     1  UNL1        0.0354
     14 C           6.6610    0.2180   19.8750 C.ar    1  UNL1        0.0730
     15 C           5.5410    1.0410   20.1900 C.ar    1  UNL1        0.0167
     16 C           5.1640    1.4060   21.5100 C.ar    1  UNL1        0.0013
     17 C           4.1030    2.2370   21.7330 C.ar    1  UNL1        0.0000
     18 C           3.3650    2.7400   20.6730 C.ar    1  UNL1        0.0001
     19 C           3.6870    2.4180   19.3850 C.ar    1  UNL1        0.0016
     20 C           4.7850    1.5690   19.1070 C.ar    1  UNL1        0.0204
     21 C           5.2060    1.2510   17.7910 C.ar    1  UNL1        0.0989
     22 N           6.2570    0.4990   17.5050 N.ar    1  UNL1       -0.2410
     23 C           6.9520    0.0000   18.5340 C.ar    1  UNL1        0.1137
@<TRIPOS>BOND
     1     2     1    2
     2     3     2    1
     3     3     4    1
     4     5     4   ar
     5     6     5   ar
     6     7     6   ar
     7     8     4   ar
     8     9     8   ar
     9     9     7   ar
    10    10     9    1
    11    11     2   am
    12    12    11    1
    13    13    12    1
    14    13     3    1
    15    14    11    1
    16    15    14   ar
    17    16    15   ar
    18    17    16   ar
    19    18    17   ar
    20    19    18   ar
    21    20    19   ar
    22    20    15   ar
    23    21    20   ar
    24    22    21   ar
    25    23    22   ar
    26    23    14   ar
