@<TRIPOS>MOLECULE
*****
 15 15 0 0 0
SMALL
GASTEIGER

@<TRIPOS>ATOM
      1 C           5.5500  -30.1100   10.7230 C.3     1  UNL1        0.0964
      2 C           5.0160  -29.9100    9.3040 C.2     1  UNL1        0.2422
      3 C           5.3260  -27.3840    9.3550 C.3     1  UNL1        0.1415
      4 C           4.3820  -26.1960    9.3200 C.ar    1  UNL1       -0.0005
      5 C           3.9370  -25.6230   10.5020 C.ar    1  UNL1       -0.0012
      6 C           3.1030  -24.5190   10.4520 C.ar    1  UNL1        0.0197
      7 C           2.7300  -23.9910    9.2270 C.ar    1  UNL1        0.1250
      8 C           3.1860  -24.5590    8.0600 C.ar    1  UNL1        0.0197
      9 C           4.0130  -25.6560    8.1120 C.ar    1  UNL1       -0.0012
     10 N           4.8940  -28.5970    8.6740 N.am    1  UNL1       -0.2005
     11 N           1.9060  -21.7100    7.6490 N.3     1  UNL1        0.0392
     12 O           4.6640  -30.8680    8.7040 O.2     1  UNL1       -0.2733
     13 O           1.8220  -21.6370   10.2300 O.2     1  UNL1       -0.1503
     14 O           0.2320  -22.9350    9.2450 O.2     1  UNL1       -0.1503
     15 S           1.6390  -22.5500    9.1060 S.O2    1  UNL1        0.0935
@<TRIPOS>BOND
     1     2     1    1
     2     4     3    1
     3     5     4   ar
     4     6     5   ar
     5     7     6   ar
     6     8     7   ar
     7     9     8   ar
     8     9     4   ar
     9    10     3    1
    10    10     2   am
    11    12     2    2
    12    15    14    2
    13    15     7    1
    14    15    13    2
    15    15    11    1
