@<TRIPOS>MOLECULE
*****
 28 31 0 0 0
SMALL
GASTEIGER

@<TRIPOS>ATOM
      1 O           9.3370    0.8770   21.1040 O.2     1  UNL1       -0.2745
      2 C           8.9850   -0.2300   21.4870 C.2     1  UNL1        0.2304
      3 C           7.9640   -1.0280   20.6980 C.3     1  UNL1        0.1131
      4 C           7.1190   -0.1760   19.7720 C.ar    1  UNL1        0.0061
      5 C           6.0190    0.5750   20.2730 C.ar    1  UNL1       -0.0005
      6 C           5.6830    0.6400   21.6500 C.ar    1  UNL1       -0.0002
      7 C           4.5880    1.3370   22.0730 C.ar    1  UNL1       -0.0000
      8 C           3.7770    2.0000   21.1620 C.ar    1  UNL1        0.0000
      9 C           4.0710    1.9860   19.8290 C.ar    1  UNL1        0.0015
     10 C           5.1960    1.2750   19.3490 C.ar    1  UNL1        0.0189
     11 C           5.5420    1.1940   17.9800 C.ar    1  UNL1        0.0988
     12 N           6.5830    0.5110   17.5160 N.ar    1  UNL1       -0.2426
     13 C           7.3360   -0.1490   18.4070 C.ar    1  UNL1        0.0951
     14 N           9.4630   -0.7820   22.6270 N.am    1  UNL1       -0.2746
     15 C          10.3320   -0.0160   23.5010 C.3     1  UNL1        0.1265
     16 C          11.7400   -0.0230   22.9920 C.ar    1  UNL1        0.0273
     17 S          12.8960    1.0920   23.5800 S.2     1  UNL1       -0.0891
     18 C          14.1160    0.4350   22.5620 C.ar    1  UNL1        0.0352
     19 C          13.6790   -0.5930   21.8020 C.ar    1  UNL1        0.0072
     20 C          12.3120   -0.8890   22.0170 C.ar    1  UNL1        0.0044
     21 C           9.1430   -2.1470   23.0710 C.3     1  UNL1        0.0938
     22 C           7.9910   -2.1410   24.0700 C.3     1  UNL1        0.0215
     23 C           7.9570   -3.1290   25.2560 C.3     1  UNL1        0.0017
     24 C           6.7180   -4.0250   25.2420 C.3     1  UNL1        0.0001
     25 C           6.6310   -4.9150   26.4840 C.3     1  UNL1        0.0000
     26 C           7.8900   -5.7540   26.6660 C.3     1  UNL1        0.0000
     27 C           9.1390   -4.8750   26.6600 C.3     1  UNL1        0.0000
     28 C           9.2020   -3.9990   25.4060 C.3     1  UNL1        0.0001
@<TRIPOS>BOND
     1     2     1    2
     2     3     2    1
     3     4     3    1
     4     5     4   ar
     5     6     5   ar
     6     7     6   ar
     7     8     7   ar
     8     9     8   ar
     9    10     9   ar
    10    10     5   ar
    11    11    10   ar
    12    12    11   ar
    13    13    12   ar
    14    13     4   ar
    15    14     2   am
    16    15    14    1
    17    16    15    1
    18    17    16   ar
    19    18    17   ar
    20    19    18   ar
    21    20    19   ar
    22    20    16   ar
    23    21    14    1
    24    22    21    1
    25    23    22    1
    26    24    23    1
    27    25    24    1
    28    26    25    1
    29    27    26    1
    30    28    27    1
    31    28    23    1
