@<TRIPOS>MOLECULE
*****
 16 17 0 0 0
SMALL
GASTEIGER

@<TRIPOS>ATOM
      1 BR         10.7910   -0.4930   23.3510 Br      1  UNL1       -0.0490
      2 C           9.2000   -1.3900   22.8430 C.ar    1  UNL1        0.0346
      3 C           9.2380   -2.2680   21.7790 C.ar    1  UNL1        0.0066
      4 C           8.1050   -3.0140   21.4800 C.ar    1  UNL1        0.0327
      5 C           7.8800   -4.1250   20.4810 C.3     1  UNL1        0.2529
      6 O           8.5320   -5.2480   21.0570 O.3     1  UNL1       -0.2082
      7 C           6.3960   -4.3950   20.6790 C.2     1  UNL1        0.2804
      8 O           5.7430   -5.2010   20.0300 O.2     1  UNL1       -0.2699
      9 N           5.9430   -3.6500   21.7130 N.am    1  UNL1       -0.1768
     10 C           6.9380   -2.8450   22.2220 C.ar    1  UNL1        0.0785
     11 C           8.0570   -1.2030   23.5970 C.ar    1  UNL1        0.0144
     12 C           6.9080   -1.9390   23.3000 C.ar    1  UNL1        0.0912
     13 C           5.7280   -1.7470   24.1890 C.2     1  UNL1        0.3426
     14 O           4.7320   -2.4240   24.1480 O.2     1  UNL1       -0.2448
     15 O           5.9160   -0.7440   25.0530 O.3     1  UNL1       -0.4413
     16 C           4.8710   -0.5320   26.0330 C.3     1  UNL1        0.2560
@<TRIPOS>BOND
     1     2     1    1
     2     3     2   ar
     3     4     3   ar
     4     5     4    1
     5     5     6    1
     6     7     5    1
     7     8     7    2
     8     9     7   am
     9    10     9    1
    10    10     4   ar
    11    11     2   ar
    12    12    11   ar
    13    12    10   ar
    14    13    12    1
    15    14    13    2
    16    15    13    1
    17    16    15    1
