@<TRIPOS>MOLECULE
*****
 14 15 0 0 0
SMALL
GASTEIGER

@<TRIPOS>ATOM
      1 N           7.6570   -4.6470   21.2240 N.am    1  UNL1       -0.2005
      2 C           7.2550   -3.0590   19.4120 C.3     1  UNL1        0.0964
      3 O           5.8850   -4.9260   19.8590 O.2     1  UNL1       -0.2733
      4 C           6.8830   -4.2930   20.2080 C.2     1  UNL1        0.2422
      5 C           7.1850   -5.5040   22.2960 C.3     1  UNL1        0.1416
      6 C           6.1120   -4.8130   23.0940 C.ar    1  UNL1        0.0027
      7 C           6.2860   -3.5050   23.5090 C.ar    1  UNL1        0.0008
      8 C           5.3140   -2.8180   24.2400 C.ar    1  UNL1        0.0399
      9 C           4.1710   -3.5040   24.5250 C.ar    1  UNL1        0.1764
     10 C           2.1260   -4.1380   25.1600 C.3     1  UNL1        0.4294
     11 C           3.9810   -4.8020   24.1090 C.ar    1  UNL1        0.1762
     12 C           4.9210   -5.4830   23.3900 C.ar    1  UNL1        0.0376
     13 O           3.0680   -3.0650   25.2180 O.3     1  UNL1       -0.4346
     14 O           2.7470   -5.2510   24.5180 O.3     1  UNL1       -0.4346
@<TRIPOS>BOND
     1     4     3    2
     2     4     2    1
     3     4     1   am
     4     5     1    1
     5     6     5    1
     6     7     6   ar
     7     8     7   ar
     8     9     8   ar
     9    11     9   ar
    10    12    11   ar
    11    12     6   ar
    12    13    10    1
    13    13     9    1
    14    14    11    1
    15    14    10    1
