@<TRIPOS>MOLECULE
*****
 7 7 0 0 0
SMALL
GASTEIGER

@<TRIPOS>ATOM
      1 N          13.0130  -27.3280    3.7990 N.ar    1  UNL1       -0.2063
      2 C          11.9030  -26.6210    3.4010 C.ar    1  UNL1        0.2793
      3 O          10.7920  -27.3250    3.0840 O.3     1  UNL1       -0.2652
      4 C          11.8510  -25.2140    3.2740 C.ar    1  UNL1        0.0625
      5 C          13.0140  -24.5120    3.5730 C.ar    1  UNL1        0.0065
      6 C          14.1700  -25.2020    3.9760 C.ar    1  UNL1        0.0209
      7 C          14.1210  -26.5970    4.0730 C.ar    1  UNL1        0.1022
@<TRIPOS>BOND
     1     2     1   ar
     2     3     2    1
     3     4     2   ar
     4     5     4   ar
     5     6     5   ar
     6     7     1   ar
     7     7     6   ar
