@<TRIPOS>MOLECULE
*****
 18 19 0 0 0
SMALL
GASTEIGER

@<TRIPOS>ATOM
      1 BR         13.8120   -1.9310   21.3350 Br      1  UNL1       -0.0490
      2 C          12.5180   -1.0020   22.3660 C.ar    1  UNL1        0.0343
      3 C          12.9370   -0.0550   23.2800 C.ar    1  UNL1        0.0067
      4 C          11.9800    0.5630   24.0700 C.ar    1  UNL1        0.0002
      5 C          10.6380    0.2610   23.9030 C.ar    1  UNL1       -0.0038
      6 C          11.1900   -1.3250   22.1990 C.ar    1  UNL1        0.0029
      7 C          10.2290   -0.6650   22.9540 C.ar    1  UNL1       -0.0125
      8 C           8.7660   -0.8880   22.6620 C.3     1  UNL1        0.1135
      9 C           8.3280   -0.1200   21.4320 C.2     1  UNL1        0.2500
     10 O           8.9460    0.8600   21.0220 O.2     1  UNL1       -0.2726
     11 N           7.1830   -0.5620   20.8820 N.am    1  UNL1       -0.1777
     12 C           6.5380    0.0530   19.7870 C.ar    1  UNL1        0.0885
     13 C           5.3960    0.8380   20.0030 C.ar    1  UNL1       -0.0034
     14 C           4.8220    1.0560   21.3810 C.3     1  UNL1        0.0325
     15 C           7.0490   -0.0500   18.4960 C.ar    1  UNL1        0.1151
     16 N           6.5110    0.5700   17.4420 N.ar    1  UNL1       -0.2410
     17 C           5.4230    1.3170   17.6590 C.ar    1  UNL1        0.0987
     18 C           4.8380    1.4700   18.8990 C.ar    1  UNL1        0.0177
@<TRIPOS>BOND
     1     2     1    1
     2     3     2   ar
     3     4     3   ar
     4     5     4   ar
     5     6     2   ar
     6     7     5   ar
     7     7     6   ar
     8     8     7    1
     9     9     8    1
    10    10     9    2
    11    11     9   am
    12    12    11    1
    13    13    12   ar
    14    14    13    1
    15    15    12   ar
    16    16    15   ar
    17    17    16   ar
    18    18    17   ar
    19    18    13   ar
