@<TRIPOS>MOLECULE
*****
 35 40 0 0 0
SMALL
GASTEIGER

@<TRIPOS>ATOM
      1 O           9.2980    1.2840   20.8720 O.2     1  UNL1       -0.2727
      2 C           8.8290    0.3730   21.5340 C.2     1  UNL1        0.2492
      3 N           7.7260   -0.3040   21.1290 N.am    1  UNL1       -0.1774
      4 C           6.9110    0.0350   20.0280 C.ar    1  UNL1        0.0925
      5 C           5.7270    0.8040   20.2660 C.ar    1  UNL1        0.0184
      6 C           5.2140    1.0810   21.5590 C.ar    1  UNL1        0.0014
      7 C           4.0880    1.8380   21.7210 C.ar    1  UNL1        0.0000
      8 C           3.4220    2.3620   20.6190 C.ar    1  UNL1        0.0001
      9 C           3.8750    2.1230   19.3540 C.ar    1  UNL1        0.0016
     10 C           5.0320    1.3310   19.1410 C.ar    1  UNL1        0.0204
     11 C           5.5420    1.0390   17.8540 C.ar    1  UNL1        0.0989
     12 N           6.6180    0.2990   17.6310 N.ar    1  UNL1       -0.2410
     13 C           7.2700   -0.1860   18.6970 C.ar    1  UNL1        0.1154
     14 C           9.4040    0.0760   22.9280 C.3     1  UNL1        0.1046
     15 C          10.9470    0.1960   22.9310 C.ar    1  UNL1        0.0209
     16 C          11.7510   -0.6080   22.1170 C.ar    1  UNL1        0.0106
     17 C          13.1140   -0.3620   22.0470 C.ar    1  UNL1        0.0576
     18 CL         14.0800   -1.2520   20.8980 Cl      1  UNL1       -0.0823
     19 C          13.7150    0.6190   22.7980 C.ar    1  UNL1        0.0145
     20 C          12.9420    1.3990   23.6330 C.ar    1  UNL1        0.0374
     21 C          11.5750    1.2060   23.6750 C.ar    1  UNL1        0.1350
     22 O          10.8830    2.1490   24.3930 O.3     1  UNL1       -0.4757
     23 C           9.5730    1.7580   24.8120 C.3     1  UNL1        0.2062
     24 C           8.7520    1.2840   23.6400 C.3     1  UNL1        0.0607
     25 C           8.9450   -1.1700   23.7150 C.3     1  UNL1        0.0982
     26 C           9.2230   -2.5090   23.0730 C.2     1  UNL1        0.2265
     27 O           9.2170   -2.6520   21.8600 O.2     1  UNL1       -0.2748
     28 N           9.4310   -3.5470   23.9120 N.am    1  UNL1       -0.2783
     29 C           8.4940   -4.6560   24.1650 C.3     1  UNL1        0.0927
     30 C           7.8530   -4.4620   25.5380 C.3     1  UNL1        0.0922
     31 C          10.5660   -3.7410   24.8160 C.3     1  UNL1        0.1093
     32 C          10.1530   -4.9930   25.5930 C.3     1  UNL1        0.0791
     33 C           9.4570   -5.7990   24.4920 C.3     1  UNL1        0.0389
     34 N           9.0100   -4.5670   26.4370 N.3     1  UNL1       -0.2697
     35 C           8.7600   -5.4570   27.5720 C.3     1  UNL1        0.0897
@<TRIPOS>BOND
     1     2     1    2
     2     3     2   am
     3     4     3    1
     4     5     4   ar
     5     6     5   ar
     6     7     6   ar
     7     8     7   ar
     8     9     8   ar
     9    10     9   ar
    10    10     5   ar
    11    11    10   ar
    12    12    11   ar
    13    13    12   ar
    14    13     4   ar
    15    14     2    1
    16    15    14    1
    17    16    15   ar
    18    17    16   ar
    19    18    17    1
    20    19    17   ar
    21    20    19   ar
    22    21    20   ar
    23    21    15   ar
    24    22    21    1
    25    23    22    1
    26    24    23    1
    27    24    14    1
    28    14    25    1
    29    26    25    1
    30    27    26    2
    31    28    26   am
    32    29    28    1
    33    29    30    1
    34    31    28    1
    35    32    31    1
    36    33    32    1
    37    33    29    1
    38    34    32    1
    39    34    30    1
    40    35    34    1
