@<TRIPOS>MOLECULE
*****
 20 21 0 0 0
SMALL
GASTEIGER

@<TRIPOS>ATOM
      1 N           7.5030   -2.5470   23.7730 N.3     1  UNL1       -0.1520
      2 C           6.0470   -5.1850   29.1770 C.3     1  UNL1        0.0311
      3 O           8.6790   -1.1300   25.4300 O.2     1  UNL1       -0.1528
      4 C           7.0680   -4.8430   28.1200 C.ar    1  UNL1       -0.0205
      5 C           6.7950   -4.2600   22.2390 C.3     1  UNL1        0.1126
      6 C           6.3670   -3.4000   23.3970 C.3     1  UNL1        0.1173
      7 C           6.7250   -3.5730   19.8760 C.2     1  UNL1        0.2262
      8 C           7.2920   -2.7050   18.7850 C.3     1  UNL1        0.0948
      9 C           8.1970   -5.6230   27.9370 C.ar    1  UNL1       -0.0045
     10 C           9.1360   -5.3120   26.9670 C.ar    1  UNL1       -0.0033
     11 C           8.9730   -4.2040   26.1390 C.ar    1  UNL1       -0.0033
     12 C          10.0310   -3.9300   25.1080 C.3     1  UNL1        0.0324
     13 C           7.8330   -3.4120   26.3300 C.ar    1  UNL1        0.1179
     14 C           6.8940   -3.7370   27.3010 C.ar    1  UNL1        0.0153
     15 C           7.8700   -1.6340   22.6810 C.3     1  UNL1        0.1173
     16 C           8.2790   -2.4590   21.4870 C.3     1  UNL1        0.1126
     17 N           7.2350   -3.4240   21.1200 N.am    1  UNL1       -0.2766
     18 O           6.2410   -1.4880   25.6110 O.2     1  UNL1       -0.1528
     19 O           5.8570   -4.3940   19.6090 O.2     1  UNL1       -0.2749
     20 S           7.5460   -1.9930   25.3150 S.O2    1  UNL1        0.0631
@<TRIPOS>BOND
     1     4     2    1
     2     6     5    1
     3     6     1    1
     4     8     7    1
     5     9     4   ar
     6    10     9   ar
     7    11    10   ar
     8    12    11    1
     9    13    11   ar
    10    14    13   ar
    11    14     4   ar
    12    15     1    1
    13    16    15    1
    14    17    16    1
    15    17     7   am
    16    17     5    1
    17    19     7    2
    18    20    18    2
    19    20    13    1
    20    20     3    2
    21    20     1    1
