@<TRIPOS>MOLECULE
*****
 34 38 0 0 0
SMALL
GASTEIGER

@<TRIPOS>ATOM
      1 O           9.3990    1.0720   21.2000 O.2     1  UNL1       -0.2723
      2 C           9.0960    0.0340   21.7740 C.2     1  UNL1        0.2546
      3 C           8.1970   -1.0010   21.0980 C.3     1  UNL1        0.2141
      4 N           7.3780   -0.4030   20.0660 N.ar    1  UNL1       -0.2222
      5 N           7.8070   -0.4030   18.7780 N.ar    1  UNL1       -0.0634
      6 N           6.9540    0.2640   18.0500 N.ar    1  UNL1       -0.1288
      7 C           6.2130    0.2910   20.1720 C.ar    1  UNL1        0.1024
      8 C           5.9490    0.7170   18.8740 C.ar    1  UNL1        0.1219
      9 C           4.8340    1.5080   18.6160 C.ar    1  UNL1        0.0256
     10 C           4.0020    1.8570   19.6670 C.ar    1  UNL1        0.0386
     11 C           5.3840    0.6210   21.2330 C.ar    1  UNL1        0.0573
     12 C           4.2730    1.4100   20.9580 C.ar    1  UNL1        0.1403
     13 O           3.3380    1.8000   21.8810 O.3     1  UNL1       -0.4714
     14 C           3.5090    1.3930   23.2400 C.3     1  UNL1        0.2525
     15 N           9.5640   -0.2770   23.0190 N.am    1  UNL1       -0.2511
     16 C          10.6660    0.5200   23.5640 C.3     1  UNL1        0.1438
     17 C          11.9310   -0.2790   23.7580 C.ar    1  UNL1        0.0794
     18 N          12.3950   -0.9120   22.6660 N.ar    1  UNL1       -0.2464
     19 C          13.3500   -1.8430   22.8460 C.ar    1  UNL1        0.0985
     20 C          13.8840   -2.1640   24.0810 C.ar    1  UNL1        0.0207
     21 C          13.4310   -1.4730   25.1810 C.ar    1  UNL1        0.0029
     22 C          12.4460   -0.5100   25.0300 C.ar    1  UNL1        0.0165
     23 C           9.0960   -1.3710   23.8190 C.ar    1  UNL1        0.0542
     24 C           9.7140   -2.6200   23.7500 C.ar    1  UNL1        0.0146
     25 C           9.2500   -3.6680   24.5270 C.ar    1  UNL1       -0.0030
     26 C           8.1680   -3.5050   25.3830 C.ar    1  UNL1       -0.0223
     27 C           7.5730   -2.2520   25.4640 C.ar    1  UNL1       -0.0030
     28 C           8.0230   -1.1940   24.6940 C.ar    1  UNL1        0.0146
     29 C           7.6090   -4.6780   26.1620 C.3     1  UNL1        0.0252
     30 C           6.0820   -4.7680   26.0880 C.3     1  UNL1        0.0232
     31 C           5.5780   -5.9890   26.8380 C.3     1  UNL1        0.0890
     32 N           6.0340   -5.9620   28.2460 N.3     1  UNL1       -0.2180
     33 C           7.5120   -5.9140   28.3390 C.3     1  UNL1        0.0890
     34 C           8.0530   -4.6850   27.6280 C.3     1  UNL1        0.0232
@<TRIPOS>BOND
     1     2     1    2
     2     3     2    1
     3     4     3    1
     4     5     4   ar
     5     6     5   ar
     6     7     4   ar
     7     8     7   ar
     8     8     6   ar
     9     9     8   ar
    10    10     9   ar
    11    11     7   ar
    12    12    11   ar
    13    12    10   ar
    14    13    12    1
    15    14    13    1
    16    15     2   am
    17    16    15    1
    18    17    16    1
    19    18    17   ar
    20    19    18   ar
    21    20    19   ar
    22    21    20   ar
    23    22    21   ar
    24    22    17   ar
    25    23    15    1
    26    24    23   ar
    27    25    24   ar
    28    26    25   ar
    29    27    26   ar
    30    28    27   ar
    31    28    23   ar
    32    29    26    1
    33    30    29    1
    34    31    30    1
    35    32    31    1
    36    33    32    1
    37    34    33    1
    38    34    29    1
