@<TRIPOS>MOLECULE
*****
 24 27 0 0 0
SMALL
GASTEIGER

@<TRIPOS>ATOM
      1 O           9.1610    0.9150   21.0790 O.2     1  UNL1       -0.2726
      2 C           8.6820   -0.1750   21.3740 C.2     1  UNL1        0.2495
      3 C           9.1680   -0.9790   22.5820 C.3     1  UNL1        0.1074
      4 C           8.3650   -0.5560   23.8220 C.3     1  UNL1        0.0610
      5 C           8.8810    0.7610   24.3440 C.3     1  UNL1        0.2062
      6 O          10.2810    0.6860   24.6980 O.3     1  UNL1       -0.4757
      7 C          10.6520   -0.7270   22.7510 C.ar    1  UNL1        0.0212
      8 C          11.1110    0.1270   23.7580 C.ar    1  UNL1        0.1350
      9 C          12.4580    0.4310   23.8910 C.ar    1  UNL1        0.0374
     10 C          13.3750   -0.1330   23.0230 C.ar    1  UNL1        0.0145
     11 C          11.5930   -1.3060   21.9030 C.ar    1  UNL1        0.0106
     12 C          12.9320   -1.0060   22.0540 C.ar    1  UNL1        0.0576
     13 CL         14.0930   -1.7740   21.0090 Cl      1  UNL1       -0.0823
     14 N           7.7100   -0.7700   20.6630 N.am    1  UNL1       -0.1774
     15 C           6.7880   -0.2290   19.7580 C.ar    1  UNL1        0.0925
     16 C           5.6690    0.5270   20.2310 C.ar    1  UNL1        0.0184
     17 C           5.2530    0.5610   21.5900 C.ar    1  UNL1        0.0014
     18 C           4.1440    1.2630   21.9690 C.ar    1  UNL1        0.0000
     19 C           3.3960    1.9640   21.0340 C.ar    1  UNL1        0.0001
     20 C           3.7580    1.9710   19.7180 C.ar    1  UNL1        0.0016
     21 C           4.9030    1.2580   19.2810 C.ar    1  UNL1        0.0204
     22 C           5.3230    1.2240   17.9290 C.ar    1  UNL1        0.0989
     23 N           6.3850    0.5540   17.4970 N.ar    1  UNL1       -0.2410
     24 C           7.0750   -0.1600   18.3950 C.ar    1  UNL1        0.1154
@<TRIPOS>BOND
     1     2     1    2
     2     3     2    1
     3     4     3    1
     4     5     4    1
     5     6     5    1
     6     7     3    1
     7     8     7   ar
     8     8     6    1
     9     9     8   ar
    10    10     9   ar
    11    11     7   ar
    12    12    11   ar
    13    12    10   ar
    14    13    12    1
    15    14     2   am
    16    15    14    1
    17    16    15   ar
    18    17    16   ar
    19    18    17   ar
    20    19    18   ar
    21    20    19   ar
    22    21    20   ar
    23    21    16   ar
    24    22    21   ar
    25    23    22   ar
    26    24    23   ar
    27    24    15   ar
