@<TRIPOS>MOLECULE
*****
 21 23 0 0 0
SMALL
GASTEIGER

@<TRIPOS>ATOM
      1 CL         13.7580   -1.4780   21.1830 Cl      1  UNL1       -0.0823
      2 C          12.6280   -0.6340   22.2070 C.ar    1  UNL1        0.0576
      3 C          13.0850    0.3730   23.0260 C.ar    1  UNL1        0.0145
      4 C          12.1920    1.0230   23.8580 C.ar    1  UNL1        0.0374
      5 C          11.2950   -0.9890   22.1650 C.ar    1  UNL1        0.0106
      6 C          10.3770   -0.3300   22.9780 C.ar    1  UNL1        0.0212
      7 C          10.8530    0.6570   23.8460 C.ar    1  UNL1        0.1350
      8 O          10.0630    1.2500   24.8010 O.3     1  UNL1       -0.4757
      9 C           8.6500    1.2730   24.5140 C.3     1  UNL1        0.2062
     10 C           8.1380   -0.0940   24.1340 C.3     1  UNL1        0.0610
     11 C           8.8890   -0.6170   22.8990 C.3     1  UNL1        0.1074
     12 C           8.3370    0.0500   21.6370 C.2     1  UNL1        0.2494
     13 O           8.8530    1.0550   21.1470 O.2     1  UNL1       -0.2726
     14 N           7.2390   -0.5500   21.1210 N.am    1  UNL1       -0.1777
     15 C           6.5190   -0.0810   19.9950 C.ar    1  UNL1        0.0885
     16 C           5.3380    0.6610   20.1880 C.ar    1  UNL1       -0.0034
     17 C           4.7220    0.8440   21.5510 C.3     1  UNL1        0.0325
     18 C           7.0020   -0.2360   18.6950 C.ar    1  UNL1        0.1151
     19 N           6.4160    0.3020   17.6170 N.ar    1  UNL1       -0.2410
     20 C           5.3040    1.0170   17.8160 C.ar    1  UNL1        0.0987
     21 C           4.7390    1.2160   19.0580 C.ar    1  UNL1        0.0177
@<TRIPOS>BOND
     1     2     1    1
     2     3     2   ar
     3     4     3   ar
     4     5     2   ar
     5     6     5   ar
     6     7     6   ar
     7     7     4   ar
     8     8     7    1
     9     9     8    1
    10    10     9    1
    11    11    10    1
    12    11     6    1
    13    11    12    1
    14    13    12    2
    15    14    12   am
    16    15    14    1
    17    16    15   ar
    18    17    16    1
    19    18    15   ar
    20    19    18   ar
    21    20    19   ar
    22    21    20   ar
    23    21    16   ar
