@<TRIPOS>MOLECULE
*****
 21 23 0 0 0
SMALL
GASTEIGER

@<TRIPOS>ATOM
      1 O           8.9170    0.7530   21.0260 O.2     1  UNL1       -0.2726
      2 C           8.3880   -0.3240   21.3070 C.2     1  UNL1        0.2500
      3 C           8.8810   -1.1900   22.4510 C.3     1  UNL1        0.1135
      4 C          10.3220   -0.8940   22.7910 C.ar    1  UNL1       -0.0122
      5 C          10.6560    0.0720   23.7350 C.ar    1  UNL1       -0.0037
      6 C          11.9780    0.4600   23.9150 C.ar    1  UNL1        0.0006
      7 C          12.9840   -0.1200   23.1530 C.ar    1  UNL1        0.0114
      8 C          11.3360   -1.5050   22.0650 C.ar    1  UNL1        0.0076
      9 C          12.6400   -1.1000   22.2390 C.ar    1  UNL1        0.0574
     10 CL         13.8840   -1.8490   21.2740 Cl      1  UNL1       -0.0823
     11 N           7.2820   -0.7860   20.6970 N.am    1  UNL1       -0.1773
     12 C           6.5490   -0.1430   19.6820 C.ar    1  UNL1        0.0925
     13 C           5.4330    0.6750   20.0380 C.ar    1  UNL1        0.0184
     14 C           4.9500    0.8250   21.3660 C.ar    1  UNL1        0.0014
     15 C           3.8480    1.5940   21.6320 C.ar    1  UNL1        0.0000
     16 C           3.1900    2.2660   20.6100 C.ar    1  UNL1        0.0001
     17 C           3.6360    2.1770   19.3200 C.ar    1  UNL1        0.0016
     18 C           4.7660    1.3780   19.0010 C.ar    1  UNL1        0.0204
     19 C           5.2760    1.2450   17.6880 C.ar    1  UNL1        0.0989
     20 N           6.3230    0.4910   17.3650 N.ar    1  UNL1       -0.2410
     21 C           6.9280   -0.1850   18.3470 C.ar    1  UNL1        0.1154
@<TRIPOS>BOND
     1     2     1    2
     2     3     2    1
     3     4     3    1
     4     5     4   ar
     5     6     5   ar
     6     7     6   ar
     7     8     4   ar
     8     9     8   ar
     9     9     7   ar
    10    10     9    1
    11    11     2   am
    12    12    11    1
    13    13    12   ar
    14    14    13   ar
    15    15    14   ar
    16    16    15   ar
    17    17    16   ar
    18    18    17   ar
    19    18    13   ar
    20    19    18   ar
    21    20    19   ar
    22    21    20   ar
    23    21    12   ar
