@<TRIPOS>MOLECULE
*****
 24 26 0 0 0
SMALL
GASTEIGER

@<TRIPOS>ATOM
      1 N           7.2510   -3.7980   21.2620 N.am    1  UNL1       -0.2767
      2 N           9.5070   -3.9920   26.0330 N.am    1  UNL1       -0.2002
      3 C           6.7390   -3.7160   20.0080 C.2     1  UNL1        0.2262
      4 C           7.9390   -2.7080   21.9720 C.3     1  UNL1        0.1107
      5 C          13.2380   -1.9710   24.3440 C.ar    1  UNL1        0.0001
      6 O           5.9220   -4.5330   19.6160 O.2     1  UNL1       -0.2749
      7 C          12.5010   -3.1530   26.7690 C.ar    1  UNL1        0.0046
      8 C           7.1680   -5.0700   21.9970 C.3     1  UNL1        0.1107
      9 C          10.0800   -2.8340   26.3750 C.2     1  UNL1        0.2648
     10 C          11.8580   -2.0560   24.6960 C.ar    1  UNL1        0.0044
     11 C           8.1520   -4.3480   26.4340 C.3     1  UNL1        0.1327
     12 C           7.1040   -3.7330   25.5110 C.3     1  UNL1        0.0959
     13 C          12.6350   -0.9940   22.2180 C.ar    1  UNL1        0.0000
     14 C          14.2050   -2.4890   25.2340 C.ar    1  UNL1        0.0000
     15 C           7.3850   -2.5640   23.3850 C.3     1  UNL1        0.0939
     16 C          13.8340   -3.0670   26.4080 C.ar    1  UNL1        0.0001
     17 C          13.5940   -1.4210   23.0900 C.ar    1  UNL1        0.0000
     18 C          11.2950   -1.0730   22.5500 C.ar    1  UNL1        0.0000
     19 C           7.2450   -2.6380   19.1000 C.3     1  UNL1        0.0948
     20 N           7.4590   -3.8530   24.0910 N.3     1  UNL1       -0.2683
     21 O           9.4910   -1.9660   27.0150 O.2     1  UNL1       -0.2684
     22 C          11.5100   -2.6680   25.9450 C.ar    1  UNL1        0.0550
     23 C           6.6240   -4.8350   23.3940 C.3     1  UNL1        0.0939
     24 C          10.9050   -1.5780   23.7580 C.ar    1  UNL1        0.0001
@<TRIPOS>BOND
     1     3     1   am
     2     4     1    1
     3     6     3    2
     4     8     1    1
     5     9     2   am
     6    10     5   ar
     7    11     2    1
     8    12    11    1
     9    14     5   ar
    10    15     4    1
    11    16    14   ar
    12    16     7   ar
    13    17    13   ar
    14    17     5   ar
    15    18    13   ar
    16    19     3    1
    17    20    15    1
    18    20    12    1
    19    21     9    2
    20    22     9    1
    21    22    10   ar
    22    22     7   ar
    23    23    20    1
    24    23     8    1
    25    24    18   ar
    26    24    10   ar
