@<TRIPOS>MOLECULE
*****
 4 3 0 0 0
SMALL
GASTEIGER

@<TRIPOS>ATOM
      1 S           7.7260   -5.4500   22.8210 S.3     1  UNL1        0.0000
      2 ZN          8.9960   -4.0530   21.5320 Zn      1  UNL1        0.0000
      3 S           8.5340   -2.3720   23.0140 S.3     1  UNL1        0.0000
      4 S          -8.1110   -3.4730  -18.9660 S.3     1  UNL1        0.0000
@<TRIPOS>BOND
     1     2     1    1
     2     3     2    1
     3     2     4    1
