@<TRIPOS>MOLECULE
*****
 20 22 0 0 0
SMALL
GASTEIGER

@<TRIPOS>ATOM
      1 O           9.1050    0.8990   21.2070 O.2     1  UNL1       -0.2725
      2 C           8.6360   -0.1890   21.5340 C.2     1  UNL1        0.2525
      3 C           9.1030   -0.9370   22.7670 C.3     1  UNL1        0.1136
      4 C          10.5750   -0.6880   22.9860 C.ar    1  UNL1       -0.0122
      5 C          11.0090    0.2840   23.8770 C.ar    1  UNL1       -0.0037
      6 C          12.3510    0.6290   23.9520 C.ar    1  UNL1        0.0006
      7 C          13.2810   -0.0020   23.1420 C.ar    1  UNL1        0.0114
      8 C          11.5130   -1.3450   22.1980 C.ar    1  UNL1        0.0076
      9 C          12.8430   -0.9930   22.2850 C.ar    1  UNL1        0.0574
     10 CL         13.9980   -1.8370   21.2950 Cl      1  UNL1       -0.0823
     11 N           7.7080   -0.8420   20.7870 N.am    1  UNL1       -0.1427
     12 C           7.1060   -0.3120   19.6780 C.ar    1  UNL1        0.2484
     13 N           5.9540    0.4310   19.8140 N.ar    1  UNL1       -0.2592
     14 C           5.6610    0.8400   18.5170 C.ar    1  UNL1        0.1714
     15 N           6.5720    0.3770   17.6710 N.ar    1  UNL1       -0.1270
     16 N           7.4960   -0.3600   18.4160 N.ar    1  UNL1       -0.1105
     17 C           5.1700    0.7890   20.8980 C.ar    1  UNL1        0.0842
     18 C           4.0790    1.5600   20.7010 C.ar    1  UNL1        0.0192
     19 C           3.7440    1.9950   19.3970 C.ar    1  UNL1        0.0047
     20 C           4.5180    1.6480   18.3200 C.ar    1  UNL1        0.0393
@<TRIPOS>BOND
     1     2     1    2
     2     3     2    1
     3     4     3    1
     4     5     4   ar
     5     6     5   ar
     6     7     6   ar
     7     8     4   ar
     8     9     8   ar
     9     9     7   ar
    10    10     9    1
    11    11     2   am
    12    12    11    1
    13    13    12   ar
    14    14    13   ar
    15    15    14   ar
    16    16    15   ar
    17    16    12   ar
    18    17    13   ar
    19    18    17   ar
    20    19    18   ar
    21    20    19   ar
    22    20    14   ar
