
     RDKit          3D

 25 28  0  0  0  0  0  0  0  0999 V2000
   13.8340   -1.7610   21.2910 Cl  0  0  0  0  0  0  0  0  0  0  0  0
   12.6090   -1.0000   22.2500 C   0  0  0  0  0  0  0  0  0  0  0  0
   12.9600   -0.0870   23.2190 C   0  0  0  0  0  0  0  0  0  0  0  0
   14.2700    0.1480   23.4580 F   0  0  0  0  0  0  0  0  0  0  0  0
   11.2750   -1.2580   22.0030 C   0  0  0  0  0  0  0  0  0  0  0  0
   10.2810   -0.5900   22.7170 C   0  0  0  0  0  0  0  0  0  0  0  0
   10.6780    0.3380   23.6890 C   0  0  0  0  0  0  0  0  0  0  0  0
   12.0150    0.5970   23.9420 C   0  0  0  0  0  0  0  0  0  0  0  0
    8.8130   -0.8790   22.4810 C   0  0  1  0  0  0  0  0  0  0  0  0
    8.0160   -0.5160   23.7410 C   0  0  0  0  0  0  0  0  0  0  0  0
    8.3790    0.8800   24.1900 C   0  0  0  0  0  0  0  0  0  0  0  0
    9.7880    1.0230   24.4870 O   0  0  0  0  0  0  0  0  0  0  0  0
    8.3300   -0.0550   21.2840 C   0  0  0  0  0  0  0  0  0  0  0  0
    8.8490    1.0150   20.9710 O   0  0  0  0  0  0  0  0  0  0  0  0
    7.2790   -0.5920   20.6300 N   0  0  0  0  0  0  0  0  0  0  0  0
    6.5020   -0.0120   19.6100 C   0  0  0  0  0  0  0  0  0  0  0  0
    5.3970    0.8170   19.9770 C   0  0  0  0  0  0  0  0  0  0  0  0
    4.9590    1.0060   21.3160 C   0  0  0  0  0  0  0  0  0  0  0  0
    3.8880    1.8080   21.5980 C   0  0  0  0  0  0  0  0  0  0  0  0
    3.2010    2.4590   20.5780 C   0  0  0  0  0  0  0  0  0  0  0  0
    3.5850    2.3120   19.2740 C   0  0  0  0  0  0  0  0  0  0  0  0
    4.6860    1.4830   18.9370 C   0  0  0  0  0  0  0  0  0  0  0  0
    5.1140    1.2660   17.6060 C   0  0  0  0  0  0  0  0  0  0  0  0
    6.1330    0.4900   17.2670 N   0  0  0  0  0  0  0  0  0  0  0  0
    6.7970   -0.1280   18.2520 C   0  0  0  0  0  0  0  0  0  0  0  0
  2  1  1  0
  3  2  2  0
  4  3  1  0
  5  2  1  0
  6  5  2  0
  7  6  1  0
  8  7  2  0
  8  3  1  0
  9  6  1  0
 10  9  1  0
 11 10  1  0
 12 11  1  0
 12  7  1  0
  9 13  1  6
 14 13  2  0
 15 13  1  0
 16 15  1  0
 17 16  1  0
 18 17  2  0
 19 18  1  0
 20 19  2  0
 21 20  1  0
 22 21  2  0
 22 17  1  0
 23 22  1  0
 24 23  2  0
 25 24  1  0
 25 16  2  0
M  END
> <BADATOMS>
368;367;366;365
> <BADCOMMENTS>
Weak Density;Weak Density;Weak Density;Weak Density