@<TRIPOS>MOLECULE
*****
 25 28 0 0 0
SMALL
GASTEIGER

@<TRIPOS>ATOM
      1 CL         13.8340   -1.7610   21.2910 Cl      1  UNL1       -0.0799
      2 C          12.6090   -1.0000   22.2500 C.ar    1  UNL1        0.0849
      3 C          12.9600   -0.0870   23.2190 C.ar    1  UNL1        0.1536
      4 F          14.2700    0.1480   23.4580 F       1  UNL1       -0.2032
      5 C          11.2750   -1.2580   22.0030 C.ar    1  UNL1        0.0129
      6 C          10.2810   -0.5900   22.7170 C.ar    1  UNL1        0.0213
      7 C          10.6780    0.3380   23.6890 C.ar    1  UNL1        0.1373
      8 C          12.0150    0.5970   23.9420 C.ar    1  UNL1        0.0671
      9 C           8.8130   -0.8790   22.4810 C.3     1  UNL1        0.1074
     10 C           8.0160   -0.5160   23.7410 C.3     1  UNL1        0.0610
     11 C           8.3790    0.8800   24.1900 C.3     1  UNL1        0.2062
     12 O           9.7880    1.0230   24.4870 O.3     1  UNL1       -0.4757
     13 C           8.3300   -0.0550   21.2840 C.2     1  UNL1        0.2495
     14 O           8.8490    1.0150   20.9710 O.2     1  UNL1       -0.2726
     15 N           7.2790   -0.5920   20.6300 N.am    1  UNL1       -0.1774
     16 C           6.5020   -0.0120   19.6100 C.ar    1  UNL1        0.0925
     17 C           5.3970    0.8170   19.9770 C.ar    1  UNL1        0.0184
     18 C           4.9590    1.0060   21.3160 C.ar    1  UNL1        0.0014
     19 C           3.8880    1.8080   21.5980 C.ar    1  UNL1        0.0000
     20 C           3.2010    2.4590   20.5780 C.ar    1  UNL1        0.0001
     21 C           3.5850    2.3120   19.2740 C.ar    1  UNL1        0.0016
     22 C           4.6860    1.4830   18.9370 C.ar    1  UNL1        0.0204
     23 C           5.1140    1.2660   17.6060 C.ar    1  UNL1        0.0989
     24 N           6.1330    0.4900   17.2670 N.ar    1  UNL1       -0.2410
     25 C           6.7970   -0.1280   18.2520 C.ar    1  UNL1        0.1154
@<TRIPOS>BOND
     1     2     1    1
     2     3     2   ar
     3     4     3    1
     4     5     2   ar
     5     6     5   ar
     6     7     6   ar
     7     8     7   ar
     8     8     3   ar
     9     9     6    1
    10    10     9    1
    11    11    10    1
    12    12    11    1
    13    12     7    1
    14     9    13    1
    15    14    13    2
    16    15    13   am
    17    16    15    1
    18    17    16   ar
    19    18    17   ar
    20    19    18   ar
    21    20    19   ar
    22    21    20   ar
    23    22    21   ar
    24    22    17   ar
    25    23    22   ar
    26    24    23   ar
    27    25    24   ar
    28    25    16   ar
