
     RDKit          3D

 50 51  0  0  0  0  0  0  0  0999 V2000
  -16.6720   11.0720   37.8020 C   0  0  0  0  0  0  0  0  0  0  0  0
  -17.1020   11.5830   38.9610 C   0  0  0  0  0  0  0  0  0  0  0  0
  -16.6160   12.7890   39.6920 C   0  0  0  0  0  0  0  0  0  0  0  0
  -18.0430   10.8260   39.3800 O   0  0  0  0  0  0  0  0  0  0  0  0
  -18.2440    9.8450   38.4660 N   0  0  0  0  0  0  0  0  0  0  0  0
  -17.3910    9.9680   37.4990 C   0  0  0  0  0  0  0  0  0  0  0  0
  -17.2730    9.0400   36.2760 C   0  0  0  0  0  0  0  0  0  0  0  0
  -16.7550    9.4190   35.2510 O   0  0  0  0  0  0  0  0  0  0  0  0
  -17.7740    7.6920   36.3540 N   0  0  0  0  0  0  0  0  0  0  0  0
  -17.6280    6.8740   35.1940 C   0  0  2  0  0  0  0  0  0  0  0  0
  -18.7480    7.1760   34.2130 C   0  0  0  0  0  0  0  0  0  0  0  0
  -19.7820    7.7300   34.5840 O   0  0  0  0  0  0  0  0  0  0  0  0
  -17.7720    5.4380   35.6030 C   0  0  0  0  0  0  0  0  0  0  0  0
  -18.6020    6.7990   32.8250 N   0  0  0  0  0  0  0  0  0  0  0  0
  -19.7200    7.0730   31.9420 C   0  0  2  0  0  0  0  0  0  0  0  0
  -19.9380    5.7750   31.2210 C   0  0  0  0  0  0  0  0  0  0  0  0
  -19.0060    4.9620   31.1050 O   0  0  0  0  0  0  0  0  0  0  0  0
  -19.4810    8.1880   30.9430 C   0  0  1  0  0  0  0  0  0  0  0  0
  -19.0210    9.4580   31.6380 C   0  0  0  0  0  0  0  0  0  0  0  0
  -18.4790    7.7770   29.8930 C   0  0  0  0  0  0  0  0  0  0  0  0
  -21.2660    5.4590   30.6690 N   0  0  0  0  0  0  0  0  0  0  0  0
  -21.3900    4.2150   29.9820 C   0  0  2  0  0  0  0  0  0  0  0  0
  -20.8890    4.5400   28.5640 C   0  0  0  0  0  0  0  0  0  0  0  0
  -21.2980    5.5390   27.9820 O   0  0  0  0  0  0  0  0  0  0  0  0
  -22.8230    3.8010   29.9530 C   0  0  0  0  0  0  0  0  0  0  0  0
  -23.1810    2.8360   31.1140 C   0  0  1  0  0  0  0  0  0  0  0  0
  -22.0940    2.8010   32.2040 C   0  0  0  0  0  0  0  0  0  0  0  0
  -24.5600    3.3110   31.7620 C   0  0  0  0  0  0  0  0  0  0  0  0
  -19.5230    4.1600   26.5720 C   0  0  2  0  0  0  0  0  0  0  0  0
  -20.4000    3.5080   25.5670 C   0  0  0  0  0  0  0  0  0  0  0  0
  -21.4750    3.3780   24.7060 C   0  0  0  0  0  0  0  0  0  0  0  0
  -22.4540    4.4240   24.2360 C   0  0  1  0  0  0  0  0  0  0  0  0
  -18.0410    3.9590   26.2960 C   0  0  0  0  0  0  0  0  0  0  0  0
  -17.3660    5.0190   26.9410 C   0  0  2  0  0  0  0  0  0  0  0  0
  -17.5710    6.3320   26.1760 C   0  0  0  0  0  0  0  0  0  0  0  0
  -16.4270    7.0410   26.5100 C   0  0  0  0  0  0  0  0  0  0  0  0
  -15.3160    5.9850   26.5650 N   0  0  0  0  0  0  0  0  0  0  0  0
  -15.8520    4.8060   26.8130 C   0  0  0  0  0  0  0  0  0  0  0  0
  -15.2650    3.7230   26.9250 O   0  0  0  0  0  0  0  0  0  0  0  0
  -19.9050    3.7080   27.8990 N   0  0  0  0  0  0  0  0  0  0  0  0
  -22.2500    5.5720   24.3950 O   0  0  0  0  0  0  0  0  0  0  0  0
  -24.8750    4.2280   24.0380 C   0  0  0  0  0  0  0  0  0  0  0  0
  -23.5680    3.9240   23.5050 O   0  0  0  0  0  0  0  0  0  0  0  0
  -26.3540    6.3630   24.2400 C   0  0  0  0  0  0  0  0  0  0  0  0
  -27.0660    7.4240   23.6990 C   0  0  0  0  0  0  0  0  0  0  0  0
  -27.1090    7.5600   22.3120 C   0  0  0  0  0  0  0  0  0  0  0  0
  -26.4610    6.6700   21.4530 C   0  0  0  0  0  0  0  0  0  0  0  0
  -25.7440    5.6230   22.0120 C   0  0  0  0  0  0  0  0  0  0  0  0
  -25.6790    5.4560   23.4050 C   0  0  0  0  0  0  0  0  0  0  0  0
  -20.7640    6.5860   23.4810 O   0  0  0  0  0  0  0  0  0  0  0  0
  2  1  1  0
  3  2  1  0
  4  2  1  0
  5  4  1  0
  6  5  1  0
  6  1  1  0
  7  6  1  0
  8  7  1  0
  9  7  1  0
 10  9  1  0
 11 10  1  0
 12 11  1  0
 10 13  1  1
 14 11  1  0
 15 14  1  1
 16 15  1  0
 17 16  1  0
 18 15  1  0
 18 19  1  1
 20 18  1  0
 21 16  1  0
 22 21  1  0
 23 22  1  0
 24 23  1  0
 22 25  1  6
 26 25  1  0
 26 27  1  1
 28 26  1  0
 29 30  1  6
 31 30  1  0
 32 31  1  0
 33 29  1  0
 34 33  1  6
 35 34  1  0
 36 35  1  0
 37 36  1  0
 38 34  1  0
 38 37  1  0
 39 38  1  0
 40 29  1  0
 40 23  1  0
 32 41  1  6
 43 42  1  0
 43 32  1  0
 45 44  1  0
 46 45  1  0
 47 46  1  0
 48 47  1  0
 49 42  1  0
 49 48  1  0
 49 44  1  0
M  END
