@<TRIPOS>MOLECULE
*****
 50 51 0 0 0
SMALL
GASTEIGER

@<TRIPOS>ATOM
      1 C         -16.6720   11.0720   37.8020 C.3     1  UNL1        0.0559
      2 C         -17.1020   11.5830   38.9610 C.3     1  UNL1        0.1410
      3 C         -16.6160   12.7890   39.6920 C.3     1  UNL1        0.0343
      4 O         -18.0430   10.8260   39.3800 O.3     1  UNL1       -0.2687
      5 N         -18.2440    9.8450   38.4660 N.3     1  UNL1       -0.0810
      6 C         -17.3910    9.9680   37.4990 C.3     1  UNL1        0.1526
      7 C         -17.2730    9.0400   36.2760 C.3     1  UNL1        0.2442
      8 O         -16.7550    9.4190   35.2510 O.3     1  UNL1       -0.2020
      9 N         -17.7740    7.6920   36.3540 N.3     1  UNL1       -0.1853
     10 C         -17.6280    6.8740   35.1940 C.3     1  UNL1        0.1226
     11 C         -18.7480    7.1760   34.2130 C.3     1  UNL1        0.2417
     12 O         -19.7820    7.7300   34.5840 O.3     1  UNL1       -0.2021
     13 C         -17.7720    5.4380   35.6030 C.3     1  UNL1        0.0232
     14 N         -18.6020    6.7990   32.8250 N.3     1  UNL1       -0.1854
     15 C         -19.7200    7.0730   31.9420 C.3     1  UNL1        0.1225
     16 C         -19.9380    5.7750   31.2210 C.3     1  UNL1        0.2417
     17 O         -19.0060    4.9620   31.1050 O.3     1  UNL1       -0.2021
     18 C         -19.4810    8.1880   30.9430 C.3     1  UNL1        0.0201
     19 C         -19.0210    9.4580   31.6380 C.3     1  UNL1        0.0016
     20 C         -18.4790    7.7770   29.8930 C.3     1  UNL1        0.0016
     21 N         -21.2660    5.4590   30.6690 N.3     1  UNL1       -0.1854
     22 C         -21.3900    4.2150   29.9820 C.3     1  UNL1        0.1226
     23 C         -20.8890    4.5400   28.5640 C.3     1  UNL1        0.2416
     24 O         -21.2980    5.5390   27.9820 O.3     1  UNL1       -0.2021
     25 C         -22.8230    3.8010   29.9530 C.3     1  UNL1        0.0216
     26 C         -23.1810    2.8360   31.1140 C.3     1  UNL1        0.0015
     27 C         -22.0940    2.8010   32.2040 C.3     1  UNL1        0.0000
     28 C         -24.5600    3.3110   31.7620 C.3     1  UNL1        0.0000
     29 C         -19.5230    4.1600   26.5720 C.3     1  UNL1        0.0756
     30 C         -20.4000    3.5080   25.5670 C.3     1  UNL1        0.0228
     31 C         -21.4750    3.3780   24.7060 C.3     1  UNL1        0.0658
     32 C         -22.4540    4.4240   24.2360 C.3     1  UNL1        0.2690
     33 C         -18.0410    3.9590   26.2960 C.3     1  UNL1        0.0215
     34 C         -17.3660    5.0190   26.9410 C.3     1  UNL1        0.0503
     35 C         -17.5710    6.3320   26.1760 C.3     1  UNL1        0.0229
     36 C         -16.4270    7.0410   26.5100 C.3     1  UNL1        0.0914
     37 N         -15.3160    5.9850   26.5650 N.3     1  UNL1       -0.1893
     38 C         -15.8520    4.8060   26.8130 C.3     1  UNL1        0.2255
     39 O         -15.2650    3.7230   26.9250 O.3     1  UNL1       -0.2037
     40 N         -19.9050    3.7080   27.8990 N.3     1  UNL1       -0.1895
     41 O         -22.2500    5.5720   24.3950 O.3     1  UNL1       -0.1899
     42 C         -24.8750    4.2280   24.0380 C.3     1  UNL1        0.1448
     43 O         -23.5680    3.9240   23.5050 O.3     1  UNL1       -0.3285
     44 C         -26.3540    6.3630   24.2400 C.3     1  UNL1        0.0025
     45 C         -27.0660    7.4240   23.6990 C.3     1  UNL1        0.0001
     46 C         -27.1090    7.5600   22.3120 C.3     1  UNL1        0.0000
     47 C         -26.4610    6.6700   21.4530 C.3     1  UNL1        0.0001
     48 C         -25.7440    5.6230   22.0120 C.3     1  UNL1        0.0025
     49 C         -25.6790    5.4560   23.4050 C.3     1  UNL1        0.0298
     50 O         -20.7640    6.5860   23.4810 O.3     2  HOH2        0.0000
@<TRIPOS>BOND
     1     2     1    1
     2     3     2    1
     3     4     2    1
     4     5     4    1
     5     6     5    1
     6     6     1    1
     7     7     6    1
     8     8     7    1
     9     9     7    1
    10    10     9    1
    11    11    10    1
    12    12    11    1
    13    10    13    1
    14    14    11    1
    15    15    14    1
    16    16    15    1
    17    17    16    1
    18    18    15    1
    19    18    19    1
    20    20    18    1
    21    21    16    1
    22    22    21    1
    23    23    22    1
    24    24    23    1
    25    22    25    1
    26    26    25    1
    27    26    27    1
    28    28    26    1
    29    29    30    1
    30    31    30    1
    31    32    31    1
    32    33    29    1
    33    34    33    1
    34    35    34    1
    35    36    35    1
    36    37    36    1
    37    38    34    1
    38    38    37    1
    39    39    38    1
    40    40    29    1
    41    40    23    1
    42    32    41    1
    43    43    42    1
    44    43    32    1
    45    45    44    1
    46    46    45    1
    47    47    46    1
    48    48    47    1
    49    49    42    1
    50    49    48    1
    51    49    44    1
