
     RDKit          3D

 27 30  0  0  0  0  0  0  0  0999 V2000
   14.1320   -1.7210   21.0880 Cl  0  0  0  0  0  0  0  0  0  0  0  0
   12.9580   -0.9040   22.0810 C   0  0  0  0  0  0  0  0  0  0  0  0
   11.6240   -1.2550   21.9750 C   0  0  0  0  0  0  0  0  0  0  0  0
   13.3720    0.1110   22.9110 C   0  0  0  0  0  0  0  0  0  0  0  0
   12.4330    0.7780   23.6760 C   0  0  0  0  0  0  0  0  0  0  0  0
   11.0800    0.4410   23.6110 C   0  0  0  0  0  0  0  0  0  0  0  0
   10.1300    1.0740   24.6040 C   0  0  0  0  0  0  0  0  0  0  0  0
    8.7110    0.8480   24.2860 N   0  0  0  0  0  0  0  0  0  0  0  0
    7.7050    1.7390   24.5050 C   0  0  0  0  0  0  0  0  0  0  0  0
    6.5470    1.3610   24.5730 O   0  0  0  0  0  0  0  0  0  0  0  0
    8.0530    3.1980   24.6430 C   0  0  0  0  0  0  0  0  0  0  0  0
   10.6680   -0.5630   22.7200 C   0  0  0  0  0  0  0  0  0  0  0  0
    9.1900   -0.8540   22.5540 C   0  0  1  0  0  0  0  0  0  0  0  0
    8.4430   -0.5250   23.8470 C   0  0  0  0  0  0  0  0  0  0  0  0
    8.5940   -0.0670   21.3840 C   0  0  0  0  0  0  0  0  0  0  0  0
    9.0870    0.9890   20.9870 O   0  0  0  0  0  0  0  0  0  0  0  0
    7.4820   -0.6110   20.8360 N   0  0  0  0  0  0  0  0  0  0  0  0
    6.7120   -0.0870   19.7750 C   0  0  0  0  0  0  0  0  0  0  0  0
    5.6100    0.7740   20.0790 C   0  0  0  0  0  0  0  0  0  0  0  0
    5.1580    1.0440   21.3970 C   0  0  0  0  0  0  0  0  0  0  0  0
    4.1200    1.9070   21.6230 C   0  0  0  0  0  0  0  0  0  0  0  0
    3.4730    2.5300   20.5630 C   0  0  0  0  0  0  0  0  0  0  0  0
    3.8680    2.3010   19.2760 C   0  0  0  0  0  0  0  0  0  0  0  0
    4.9460    1.4240   18.9980 C   0  0  0  0  0  0  0  0  0  0  0  0
    5.4150    1.1680   17.6870 C   0  0  0  0  0  0  0  0  0  0  0  0
    6.4290    0.3620   17.4020 N   0  0  0  0  0  0  0  0  0  0  0  0
    7.0450   -0.2450   18.4270 C   0  0  0  0  0  0  0  0  0  0  0  0
  2  1  1  0
  3  2  2  0
  4  2  1  0
  5  4  2  0
  6  5  1  0
  7  6  1  0
  8  7  1  0
  9  8  1  0
 10  9  2  0
 11  9  1  0
 12  6  2  0
 12  3  1  0
 13 12  1  0
 14 13  1  0
 14  8  1  0
 13 15  1  6
 16 15  2  0
 17 15  1  0
 18 17  1  0
 19 18  1  0
 20 19  2  0
 21 20  1  0
 22 21  2  0
 23 22  1  0
 24 23  2  0
 24 19  1  0
 25 24  1  0
 26 25  2  0
 27 26  1  0
 27 18  2  0
M  END
