@<TRIPOS>MOLECULE
*****
 27 30 0 0 0
SMALL
GASTEIGER

@<TRIPOS>ATOM
      1 CL         14.1320   -1.7210   21.0880 Cl      1  UNL1       -0.0823
      2 C          12.9580   -0.9040   22.0810 C.ar    1  UNL1        0.0574
      3 C          11.6240   -1.2550   21.9750 C.ar    1  UNL1        0.0074
      4 C          13.3720    0.1110   22.9110 C.ar    1  UNL1        0.0111
      5 C          12.4330    0.7780   23.6760 C.ar    1  UNL1       -0.0020
      6 C          11.0800    0.4410   23.6110 C.ar    1  UNL1       -0.0057
      7 C          10.1300    1.0740   24.6040 C.3     1  UNL1        0.1198
      8 N           8.7110    0.8480   24.2860 N.am    1  UNL1       -0.2746
      9 C           7.7050    1.7390   24.5050 C.2     1  UNL1        0.2264
     10 O           6.5470    1.3610   24.5730 O.2     1  UNL1       -0.2748
     11 C           8.0530    3.1980   24.6430 C.3     1  UNL1        0.0948
     12 C          10.6680   -0.5630   22.7200 C.ar    1  UNL1       -0.0137
     13 C           9.1900   -0.8540   22.5540 C.3     1  UNL1        0.1203
     14 C           8.4430   -0.5250   23.8470 C.3     1  UNL1        0.1072
     15 C           8.5940   -0.0670   21.3840 C.2     1  UNL1        0.2509
     16 O           9.0870    0.9890   20.9870 O.2     1  UNL1       -0.2726
     17 N           7.4820   -0.6110   20.8360 N.am    1  UNL1       -0.1773
     18 C           6.7120   -0.0870   19.7750 C.ar    1  UNL1        0.0925
     19 C           5.6100    0.7740   20.0790 C.ar    1  UNL1        0.0184
     20 C           5.1580    1.0440   21.3970 C.ar    1  UNL1        0.0014
     21 C           4.1200    1.9070   21.6230 C.ar    1  UNL1        0.0000
     22 C           3.4730    2.5300   20.5630 C.ar    1  UNL1        0.0001
     23 C           3.8680    2.3010   19.2760 C.ar    1  UNL1        0.0016
     24 C           4.9460    1.4240   18.9980 C.ar    1  UNL1        0.0204
     25 C           5.4150    1.1680   17.6870 C.ar    1  UNL1        0.0989
     26 N           6.4290    0.3620   17.4020 N.ar    1  UNL1       -0.2410
     27 C           7.0450   -0.2450   18.4270 C.ar    1  UNL1        0.1154
@<TRIPOS>BOND
     1     2     1    1
     2     3     2   ar
     3     4     2   ar
     4     5     4   ar
     5     6     5   ar
     6     7     6    1
     7     8     7    1
     8     9     8   am
     9    10     9    2
    10    11     9    1
    11    12     6   ar
    12    12     3   ar
    13    13    12    1
    14    14    13    1
    15    14     8    1
    16    13    15    1
    17    16    15    2
    18    17    15   am
    19    18    17    1
    20    19    18   ar
    21    20    19   ar
    22    21    20   ar
    23    22    21   ar
    24    23    22   ar
    25    24    23   ar
    26    24    19   ar
    27    25    24   ar
    28    26    25   ar
    29    27    26   ar
    30    27    18   ar
