@<TRIPOS>MOLECULE
*****
 18 19 0 0 0
SMALL
GASTEIGER

@<TRIPOS>ATOM
      1 N           7.8240   -0.3630   21.3240 N.am    1  UNL1       -0.1780
      2 C           5.6430    1.0220   18.0780 C.ar    1  UNL1        0.0987
      3 C           9.3810   -0.0700   23.1660 C.3     1  UNL1        0.0786
      4 C           8.9230    0.2880   21.7560 C.2     1  UNL1        0.2451
      5 C          10.9220   -0.2540   23.2050 C.3     1  UNL1        0.0087
      6 C          12.9670   -1.4490   22.2890 C.3     1  UNL1        0.0000
      7 C          13.4720   -1.7190   23.7010 C.3     1  UNL1        0.0000
      8 C          12.9860   -0.6440   24.6560 C.3     1  UNL1        0.0000
      9 C           5.8600    0.8370   20.4580 C.ar    1  UNL1       -0.0034
     10 C           7.4370   -0.1250   18.9070 C.ar    1  UNL1        0.1151
     11 C           7.0410    0.0900   20.2270 C.ar    1  UNL1        0.0885
     12 C           5.1540    1.2810   19.3450 C.ar    1  UNL1        0.0177
     13 C           5.4060    1.2160   21.8440 C.3     1  UNL1        0.0325
     14 C           8.9010    1.0610   24.0770 C.3     1  UNL1        0.0096
     15 N           6.7680    0.3400   17.8460 N.ar    1  UNL1       -0.2410
     16 O           9.4630    1.1830   21.1240 O.2     1  UNL1       -0.2730
     17 C          11.4410   -1.3390   22.2510 C.3     1  UNL1        0.0005
     18 C          11.4610   -0.5130   24.6230 C.3     1  UNL1        0.0005
@<TRIPOS>BOND
     1     4     1   am
     2     4     3    1
     3     5     3    1
     4     7     6    1
     5     8     7    1
     6    11    10   ar
     7    11     9   ar
     8    11     1    1
     9    12     9   ar
    10    12     2   ar
    11    13     9    1
    12     3    14    1
    13    15    10   ar
    14    15     2   ar
    15    16     4    2
    16    17     6    1
    17     5    17    1
    18    18     8    1
    19    18     5    1
