@<TRIPOS>MOLECULE
*****
 21 22 0 0 0
SMALL
GASTEIGER

@<TRIPOS>ATOM
      1 CL         13.9840   -1.4220   21.3930 Cl      1  UNL1       -0.0823
      2 C          12.6720   -0.7220   22.3010 C.ar    1  UNL1        0.0574
      3 C          12.9360    0.2940   23.1970 C.ar    1  UNL1        0.0114
      4 C          11.8790    0.8580   23.8910 C.ar    1  UNL1        0.0006
      5 C          10.5820    0.4220   23.6660 C.ar    1  UNL1       -0.0037
      6 C          11.3870   -1.1760   22.0750 C.ar    1  UNL1        0.0076
      7 C          10.3190   -0.5830   22.7420 C.ar    1  UNL1       -0.0122
      8 C           8.8980   -0.9620   22.3920 C.3     1  UNL1        0.1135
      9 C           8.2890   -0.0280   21.3640 C.2     1  UNL1        0.2500
     10 O           8.8360    1.0270   21.0380 O.2     1  UNL1       -0.2726
     11 N           7.1250   -0.4660   20.8310 N.am    1  UNL1       -0.1774
     12 C           6.4570    0.0990   19.7200 C.ar    1  UNL1        0.0964
     13 C           5.3730    0.9660   19.9120 C.ar    1  UNL1        0.0898
     14 C           4.8630    1.2720   21.2950 C.3     1  UNL1        0.4199
     15 F           3.7820    2.0620   21.2910 F       1  UNL1       -0.1658
     16 F           5.7720    1.9070   22.0420 F       1  UNL1       -0.1658
     17 F           4.4970    0.1750   21.9600 F       1  UNL1       -0.1658
     18 C           6.8850   -0.1400   18.4160 C.ar    1  UNL1        0.1153
     19 N           6.3220    0.4320   17.3470 N.ar    1  UNL1       -0.2410
     20 C           5.2960    1.2630   17.5580 C.ar    1  UNL1        0.0989
     21 C           4.7810    1.5630   18.8070 C.ar    1  UNL1        0.0258
@<TRIPOS>BOND
     1     2     1    1
     2     3     2   ar
     3     4     3   ar
     4     5     4   ar
     5     6     2   ar
     6     7     5   ar
     7     7     6   ar
     8     8     7    1
     9     9     8    1
    10    10     9    2
    11    11     9   am
    12    12    11    1
    13    13    12   ar
    14    14    13    1
    15    14    15    1
    16    16    14    1
    17    17    14    1
    18    18    12   ar
    19    19    18   ar
    20    20    19   ar
    21    21    20   ar
    22    21    13   ar
