@<TRIPOS>MOLECULE
*****
 25 28 0 0 0
SMALL
GASTEIGER

@<TRIPOS>ATOM
      1 CL         14.1300   -1.5250   21.3280 Cl      1  UNL1       -0.0823
      2 C          12.9050   -0.7750   22.3150 C.ar    1  UNL1        0.0575
      3 C          11.5950   -1.1710   22.1650 C.ar    1  UNL1        0.0088
      4 C          13.2680    0.2060   23.2180 C.ar    1  UNL1        0.0126
      5 C          12.2920    0.7920   24.0090 C.ar    1  UNL1        0.0151
      6 C          10.9560    0.4050   23.8740 C.ar    1  UNL1        0.0443
      7 N           9.9490    0.9330   24.6990 N.pl3   1  UNL1       -0.3060
      8 C          10.2860    1.8590   25.7720 C.3     1  UNL1        0.1122
      9 C          10.6000   -0.5700   22.9300 C.ar    1  UNL1        0.0004
     10 C           9.1500   -0.9510   22.7130 C.3     1  UNL1        0.1036
     11 C           8.3280   -0.7400   24.0040 C.3     1  UNL1        0.0350
     12 C           8.5220    0.6760   24.5360 C.3     1  UNL1        0.0917
     13 C           8.5960   -0.1040   21.5660 C.2     1  UNL1        0.2493
     14 O           9.1520    0.9220   21.1750 O.2     1  UNL1       -0.2726
     15 N           7.4540   -0.5740   21.0350 N.am    1  UNL1       -0.1774
     16 C           6.7320   -0.0300   19.9690 C.ar    1  UNL1        0.0925
     17 C           5.6300    0.8300   20.2620 C.ar    1  UNL1        0.0184
     18 C           5.1560    1.0880   21.5760 C.ar    1  UNL1        0.0014
     19 C           4.1050    1.9350   21.7890 C.ar    1  UNL1        0.0000
     20 C           3.4680    2.5550   20.7190 C.ar    1  UNL1        0.0001
     21 C           3.8880    2.3370   19.4370 C.ar    1  UNL1        0.0016
     22 C           4.9750    1.4680   19.1730 C.ar    1  UNL1        0.0204
     23 C           5.4500    1.1920   17.8680 C.ar    1  UNL1        0.0989
     24 N           6.4680    0.3860   17.5980 N.ar    1  UNL1       -0.2410
     25 C           7.0840   -0.2030   18.6330 C.ar    1  UNL1        0.1154
@<TRIPOS>BOND
     1     2     1    1
     2     3     2   ar
     3     4     2   ar
     4     5     4   ar
     5     6     5   ar
     6     7     6    1
     7     8     7    1
     8     9     6   ar
     9     9     3   ar
    10    10     9    1
    11    11    10    1
    12    12    11    1
    13    12     7    1
    14    10    13    1
    15    14    13    2
    16    15    13   am
    17    16    15    1
    18    17    16   ar
    19    18    17   ar
    20    19    18   ar
    21    20    19   ar
    22    21    20   ar
    23    22    21   ar
    24    22    17   ar
    25    23    22   ar
    26    24    23   ar
    27    25    24   ar
    28    25    16   ar
