@<TRIPOS>MOLECULE
*****
 24 27 0 0 0
SMALL
GASTEIGER

@<TRIPOS>ATOM
      1 O           9.1160    1.0010   21.0660 O.2     1  UNL1       -0.2742
      2 C           8.7140    0.0000   21.6240 C.2     1  UNL1        0.2330
      3 C           9.3960   -0.5200   22.8820 C.3     1  UNL1        0.0993
      4 C          10.8940   -0.2550   22.8510 C.ar    1  UNL1       -0.0130
      5 C          11.4570    0.7060   23.6820 C.ar    1  UNL1       -0.0038
      6 C          12.8190    0.9550   23.6540 C.ar    1  UNL1        0.0006
      7 C          13.6450    0.2330   22.8090 C.ar    1  UNL1        0.0114
      8 C          11.7210   -0.9710   21.9930 C.ar    1  UNL1        0.0076
      9 C          13.0810   -0.7260   21.9940 C.ar    1  UNL1        0.0574
     10 CL         14.1110   -1.6880   20.9740 Cl      1  UNL1       -0.0823
     11 N           7.6180   -0.6770   21.1620 N.am    1  UNL1       -0.2569
     12 C           7.0000   -1.8730   21.7790 C.3     1  UNL1        0.0983
     13 C           7.5120   -2.1450   23.1820 C.3     1  UNL1        0.0227
     14 C           9.0240   -1.9600   23.2430 C.3     1  UNL1        0.0153
     15 C           6.8740   -0.1120   20.0800 C.ar    1  UNL1        0.0730
     16 C           5.7400    0.7300   20.2820 C.ar    1  UNL1        0.0167
     17 C           5.2290    1.0850   21.5590 C.ar    1  UNL1        0.0013
     18 C           4.1250    1.8810   21.6770 C.ar    1  UNL1        0.0000
     19 C           3.4850    2.3760   20.5490 C.ar    1  UNL1        0.0001
     20 C           3.9560    2.0900   19.3000 C.ar    1  UNL1        0.0016
     21 C           5.0970    1.2680   19.1310 C.ar    1  UNL1        0.0204
     22 C           5.6510    0.9600   17.8620 C.ar    1  UNL1        0.0989
     23 N           6.7210    0.1920   17.6820 N.ar    1  UNL1       -0.2410
     24 C           7.2940   -0.3310   18.7740 C.ar    1  UNL1        0.1137
@<TRIPOS>BOND
     1     2     1    2
     2     3     2    1
     3     3     4    1
     4     5     4   ar
     5     6     5   ar
     6     7     6   ar
     7     8     4   ar
     8     9     8   ar
     9     9     7   ar
    10    10     9    1
    11    11     2   am
    12    12    11    1
    13    13    12    1
    14    14    13    1
    15    14     3    1
    16    15    11    1
    17    16    15   ar
    18    17    16   ar
    19    18    17   ar
    20    19    18   ar
    21    20    19   ar
    22    21    20   ar
    23    21    16   ar
    24    22    21   ar
    25    23    22   ar
    26    24    23   ar
    27    24    15   ar
