@<TRIPOS>MOLECULE
*****
 21 22 0 0 0
SMALL
GASTEIGER

@<TRIPOS>ATOM
      1 CL         14.0370   -1.4210   21.1730 Cl      1  UNL1       -0.0823
      2 C          12.9080   -0.6030   22.2190 C.ar    1  UNL1        0.0574
      3 C          13.3740    0.3610   23.0890 C.ar    1  UNL1        0.0114
      4 C          12.4850    0.9370   23.9820 C.ar    1  UNL1        0.0006
      5 C          11.1500    0.5630   23.9790 C.ar    1  UNL1       -0.0024
      6 C          11.5740   -0.9700   22.1880 C.ar    1  UNL1        0.0089
      7 C          10.6750   -0.3710   23.0670 C.ar    1  UNL1        0.0019
      8 C           9.1740   -0.5930   22.9170 C.3     1  UNL1        0.1598
      9 N           8.7180   -1.9780   23.2140 N.3     1  UNL1       -0.2605
     10 C           9.5970   -2.7370   24.1070 C.3     1  UNL1        0.0903
     11 C           7.3620   -1.9850   23.7600 C.3     1  UNL1        0.0903
     12 C           8.6140    0.0360   21.6280 C.2     1  UNL1        0.2644
     13 O           9.1160    1.0560   21.1720 O.2     1  UNL1       -0.2712
     14 N           7.5410   -0.5760   21.0710 N.am    1  UNL1       -0.1765
     15 C           6.7620   -0.0460   20.0160 C.ar    1  UNL1        0.0886
     16 C           5.5580    0.6300   20.3050 C.ar    1  UNL1       -0.0034
     17 C           5.0000    0.7050   21.7030 C.3     1  UNL1        0.0325
     18 C           4.9000    1.2450   19.2450 C.ar    1  UNL1        0.0177
     19 C           5.4370    1.1780   17.9750 C.ar    1  UNL1        0.0987
     20 N           6.5750    0.5320   17.6870 N.ar    1  UNL1       -0.2410
     21 C           7.2060   -0.0760   18.6950 C.ar    1  UNL1        0.1151
@<TRIPOS>BOND
     1     2     1    1
     2     3     2   ar
     3     4     3   ar
     4     5     4   ar
     5     6     2   ar
     6     7     6   ar
     7     7     5   ar
     8     8     7    1
     9     9     8    1
    10    10     9    1
    11    11     9    1
    12     8    12    1
    13    13    12    2
    14    14    12   am
    15    15    14    1
    16    16    15   ar
    17    17    16    1
    18    18    16   ar
    19    19    18   ar
    20    20    19   ar
    21    21    20   ar
    22    21    15   ar
