@<TRIPOS>MOLECULE
*****
 29 32 0 0 0
SMALL
GASTEIGER

@<TRIPOS>ATOM
      1 O           9.2630    1.2570   20.8980 O.2     1  UNL1       -0.2727
      2 C           8.8280    0.2110   21.3590 C.2     1  UNL1        0.2492
      3 C           9.4600   -0.4130   22.6270 C.3     1  UNL1        0.1046
      4 C          10.9650   -0.1570   22.7020 C.ar    1  UNL1        0.0209
      5 C          11.8480   -0.9410   21.9610 C.ar    1  UNL1        0.0106
      6 C          13.1900   -0.6170   21.9440 C.ar    1  UNL1        0.0576
      7 CL         14.2460   -1.4710   20.8490 Cl      1  UNL1       -0.0823
      8 C          13.6950    0.4350   22.6790 C.ar    1  UNL1        0.0145
      9 C          12.8330    1.2080   23.4350 C.ar    1  UNL1        0.0374
     10 C          11.4800    0.9050   23.4460 C.ar    1  UNL1        0.1350
     11 O          10.7460    1.5660   24.3980 O.3     1  UNL1       -0.4757
     12 C           9.5380    0.8980   24.8160 C.3     1  UNL1        0.2062
     13 C           8.6710    0.4110   23.6760 C.3     1  UNL1        0.0607
     14 C           9.2250   -1.9440   22.7160 C.3     1  UNL1        0.0998
     15 C           7.9360   -2.3380   23.4040 C.2     1  UNL1        0.2422
     16 O           6.8400   -2.1700   22.8700 O.2     1  UNL1       -0.2733
     17 N           8.0680   -2.9110   24.5950 N.am    1  UNL1       -0.2035
     18 C           6.9300   -3.4140   25.3440 C.3     1  UNL1        0.1385
     19 N           7.7210   -0.3860   20.8500 N.am    1  UNL1       -0.1774
     20 C           6.8910    0.0850   19.8100 C.ar    1  UNL1        0.0925
     21 C           5.7050    0.8110   20.1500 C.ar    1  UNL1        0.0184
     22 C           5.2290    0.9700   21.4790 C.ar    1  UNL1        0.0014
     23 C           4.0970    1.6920   21.7390 C.ar    1  UNL1        0.0000
     24 C           3.3880    2.2930   20.7050 C.ar    1  UNL1        0.0001
     25 C           3.7980    2.1570   19.4090 C.ar    1  UNL1        0.0016
     26 C           4.9590    1.4050   19.0940 C.ar    1  UNL1        0.0204
     27 C           5.4200    1.2090   17.7700 C.ar    1  UNL1        0.0989
     28 N           6.5000    0.5110   17.4530 N.ar    1  UNL1       -0.2410
     29 C           7.2050   -0.0300   18.4550 C.ar    1  UNL1        0.1154
@<TRIPOS>BOND
     1     2     1    2
     2     3     2    1
     3     4     3    1
     4     5     4   ar
     5     6     5   ar
     6     7     6    1
     7     8     6   ar
     8     9     8   ar
     9    10     9   ar
    10    10     4   ar
    11    11    10    1
    12    12    11    1
    13    13    12    1
    14    13     3    1
    15     3    14    1
    16    15    14    1
    17    16    15    2
    18    17    15   am
    19    18    17    1
    20    19     2   am
    21    20    19    1
    22    21    20   ar
    23    22    21   ar
    24    23    22   ar
    25    24    23   ar
    26    25    24   ar
    27    26    25   ar
    28    26    21   ar
    29    27    26   ar
    30    28    27   ar
    31    29    28   ar
    32    29    20   ar
