@<TRIPOS>MOLECULE
*****
 13 14 0 0 0
SMALL
GASTEIGER

@<TRIPOS>ATOM
      1 N           4.7110    8.1080   10.8320 N.ar    1  UNL1       -0.2481
      2 C           2.0820    9.9830    9.6790 C.3     1  UNL1        0.1875
      3 O           1.7400    9.2790   10.8320 O.3     1  UNL1       -0.2200
      4 C           3.4440    9.4810    9.1680 C.3     1  UNL1        0.0660
      5 C           3.2620    8.1310    8.4500 C.3     1  UNL1        0.0081
      6 C           4.4200    9.3610   10.3210 C.ar    1  UNL1        0.0608
      7 C           5.6180    8.0510   11.8450 C.ar    1  UNL1        0.0984
      8 C           6.2520    9.1850   12.3830 C.ar    1  UNL1        0.0207
      9 C           5.9320   10.4360   11.8680 C.ar    1  UNL1        0.0028
     10 C           5.0140   10.5380   10.8380 C.ar    1  UNL1        0.0148
     11 C           3.9790   10.4020    8.0650 C.3     1  UNL1        0.0081
     12 C           3.4790    9.8320    6.7360 C.3     1  UNL1        0.0005
     13 C           2.7860    8.5160    7.0510 C.3     1  UNL1        0.0005
@<TRIPOS>BOND
     1     3     2    1
     2     4     2    1
     3     5     4    1
     4     6     4    1
     5     6     1   ar
     6     7     1   ar
     7     8     7   ar
     8     9     8   ar
     9    10     6   ar
    10    10     9   ar
    11    11     4    1
    12    12    11    1
    13    13    12    1
    14    13     5    1
