@<TRIPOS>MOLECULE
*****
 49 51 0 0 0
SMALL
GASTEIGER

@<TRIPOS>ATOM
      1 C         -20.4140    9.8890   37.4640 C.3     1  UNL1        0.0559
      2 C         -20.7540   11.0020   38.2520 C.3     1  UNL1        0.1410
      3 C         -22.0390   11.1850   39.0640 C.3     1  UNL1        0.0343
      4 O         -19.7580   11.9110   38.2050 O.3     1  UNL1       -0.2687
      5 N         -18.7200   11.3410   37.3440 N.3     1  UNL1       -0.0810
      6 C         -19.1160   10.0910   36.9210 C.3     1  UNL1        0.1526
      7 C         -18.3800    9.1820   35.9340 C.3     1  UNL1        0.2442
      8 O         -17.5080    9.5970   35.1900 O.3     1  UNL1       -0.2020
      9 N         -18.6770    7.9050   35.7350 N.3     1  UNL1       -0.1853
     10 C         -18.0170    7.1620   34.6830 C.3     1  UNL1        0.1226
     11 C         -18.9340    7.3940   33.4710 C.3     1  UNL1        0.2417
     12 O         -20.0530    7.9850   33.5440 O.3     1  UNL1       -0.2021
     13 C         -17.9080    5.6930   35.0840 C.3     1  UNL1        0.0232
     14 N         -18.5420    6.9990   32.2860 N.3     1  UNL1       -0.1854
     15 C         -19.4220    7.2310   31.1370 C.3     1  UNL1        0.1225
     16 C         -19.5860    5.9080   30.3940 C.3     1  UNL1        0.2417
     17 O         -18.5820    5.2470   30.1290 O.3     1  UNL1       -0.2021
     18 C         -18.6590    8.3130   30.3380 C.3     1  UNL1        0.0201
     19 C         -19.0830    8.3380   28.8770 C.3     1  UNL1        0.0016
     20 C         -18.9720    9.6890   30.9150 C.3     1  UNL1        0.0016
     21 N         -20.8270    5.4940   30.1220 N.3     1  UNL1       -0.1854
     22 C         -21.1360    4.2630   29.4240 C.3     1  UNL1        0.1226
     23 C         -20.8040    4.4660   27.9730 C.3     1  UNL1        0.2416
     24 O         -21.1550    5.5360   27.4640 O.3     1  UNL1       -0.2021
     25 C         -22.6560    4.1780   29.4860 C.3     1  UNL1        0.0216
     26 C         -23.2440    2.9920   30.2580 C.3     1  UNL1        0.0015
     27 C         -22.3180    2.2100   31.1950 C.3     1  UNL1        0.0000
     28 C         -24.4590    3.3560   31.0590 C.3     1  UNL1        0.0000
     29 C         -19.8640    3.9250   25.8610 C.3     1  UNL1        0.0756
     30 C         -20.6900    3.0470   24.8990 C.3     1  UNL1        0.0228
     31 C         -22.1950    3.3790   25.0200 C.3     1  UNL1        0.0658
     32 C         -22.8390    3.2800   23.6670 C.3     1  UNL1        0.2690
     33 C         -18.3690    3.7600   25.6100 C.3     1  UNL1        0.0215
     34 C         -17.6610    4.9940   26.3120 C.3     1  UNL1        0.0503
     35 C         -18.0330    6.3600   25.6760 C.3     1  UNL1        0.0229
     36 C         -16.7780    7.4520   25.7160 C.3     1  UNL1        0.0914
     37 N         -15.7260    6.2110   25.8620 N.3     1  UNL1       -0.1893
     38 C         -16.1630    4.9190   26.1170 C.3     1  UNL1        0.2255
     39 O         -15.4930    3.8860   26.2350 O.3     1  UNL1       -0.2037
     40 N         -20.1030    3.5610   27.2700 N.3     1  UNL1       -0.1895
     41 O         -22.1790    2.7400   22.7560 O.3     1  UNL1       -0.1899
     42 C         -24.5810    5.1200   23.0360 C.3     1  UNL1        0.1448
     43 O         -24.2290    3.7690   23.4450 O.3     1  UNL1       -0.3285
     44 C         -26.7050    5.6370   21.6270 C.3     1  UNL1        0.0025
     45 C         -27.3860    5.8540   20.4070 C.3     1  UNL1        0.0001
     46 C         -26.6710    5.7680   19.1870 C.3     1  UNL1        0.0000
     47 C         -25.2800    5.4750   19.1990 C.3     1  UNL1        0.0001
     48 C         -24.6040    5.2670   20.4330 C.3     1  UNL1        0.0025
     49 C         -25.3100    5.3220   21.6750 C.3     1  UNL1        0.0298
@<TRIPOS>BOND
     1     2     1    1
     2     3     2    1
     3     4     2    1
     4     5     4    1
     5     6     1    1
     6     6     5    1
     7     7     6    1
     8     7     8    1
     9     9     7    1
    10    10     9    1
    11    11    10    1
    12    12    11    1
    13    10    13    1
    14    14    11    1
    15    15    14    1
    16    16    15    1
    17    16    17    1
    18    18    15    1
    19    18    19    1
    20    20    18    1
    21    21    16    1
    22    22    21    1
    23    23    22    1
    24    23    24    1
    25    22    25    1
    26    26    25    1
    27    26    27    1
    28    28    26    1
    29    29    30    1
    30    31    30    1
    31    32    31    1
    32    33    29    1
    33    34    33    1
    34    35    34    1
    35    36    35    1
    36    37    36    1
    37    38    34    1
    38    38    37    1
    39    38    39    1
    40    40    29    1
    41    40    23    1
    42    41    32    1
    43    43    42    1
    44    43    32    1
    45    45    44    1
    46    46    45    1
    47    47    46    1
    48    48    47    1
    49    49    48    1
    50    49    42    1
    51    49    44    1
