@<TRIPOS>MOLECULE
*****
 23 24 0 0 0
SMALL
GASTEIGER

@<TRIPOS>ATOM
      1 O           8.9630    0.6150   20.9430 O.2     1  UNL1       -0.2726
      2 C           8.3290   -0.3880   21.2650 C.2     1  UNL1        0.2501
      3 N           7.1210   -0.7010   20.7580 N.am    1  UNL1       -0.1777
      4 C           6.4920    0.0070   19.7060 C.ar    1  UNL1        0.0885
      5 C           5.3760    0.8110   19.9790 C.ar    1  UNL1       -0.0034
      6 C           4.8380    0.9810   21.3780 C.3     1  UNL1        0.0325
      7 C           4.8210    1.5150   18.9140 C.ar    1  UNL1        0.0177
      8 C           5.3840    1.4110   17.6590 C.ar    1  UNL1        0.0987
      9 N           6.4540    0.6540   17.3880 N.ar    1  UNL1       -0.2410
     10 C           6.9880   -0.0350   18.4030 C.ar    1  UNL1        0.1151
     11 C           8.8640   -1.3920   22.2680 C.3     1  UNL1        0.1165
     12 C          10.2330   -0.9660   22.7460 C.ar    1  UNL1        0.0218
     13 C          11.3790   -1.4710   22.1430 C.ar    1  UNL1        0.0106
     14 C          12.6170   -0.9960   22.5150 C.ar    1  UNL1        0.0576
     15 CL         14.0390   -1.6420   21.7320 Cl      1  UNL1       -0.0823
     16 C          12.7580   -0.0400   23.5010 C.ar    1  UNL1        0.0145
     17 C          11.6270    0.4410   24.1430 C.ar    1  UNL1        0.0374
     18 C          10.3730   -0.0030   23.7450 C.ar    1  UNL1        0.1350
     19 O           9.1980    0.5550   24.1800 O.3     1  UNL1       -0.4758
     20 C           8.8650    0.4830   25.5770 C.3     1  UNL1        0.2054
     21 C           7.3730    0.6750   25.7070 C.3     1  UNL1        0.0473
     22 C           6.5590   -0.4570   25.0780 C.3     1  UNL1        0.0038
     23 C           5.0640   -0.2890   25.2300 C.3     1  UNL1        0.0001
@<TRIPOS>BOND
     1     2     1    2
     2     3     2   am
     3     4     3    1
     4     5     4   ar
     5     6     5    1
     6     7     5   ar
     7     8     7   ar
     8     9     8   ar
     9    10     9   ar
    10    10     4   ar
    11    11     2    1
    12    12    11    1
    13    13    12   ar
    14    14    13   ar
    15    15    14    1
    16    16    14   ar
    17    17    16   ar
    18    18    12   ar
    19    18    17   ar
    20    19    18    1
    21    20    19    1
    22    21    20    1
    23    22    21    1
    24    23    22    1
