@<TRIPOS>MOLECULE
*****
 15 16 0 0 0
SMALL
GASTEIGER

@<TRIPOS>ATOM
      1 C          10.0720   -0.4900   24.9250 C.3     1  UNL1        0.1122
      2 C          11.8520   -1.6700   23.6760 C.3     1  UNL1        0.0912
      3 C          12.8600   -1.5610   22.5710 C.3     1  UNL1        0.0261
      4 C          13.8160   -0.4120   22.8180 C.3     1  UNL1        0.0294
      5 C          13.0440    0.9210   23.0580 C.ar    1  UNL1       -0.0087
      6 C          13.5990    2.1520   22.6570 C.ar    1  UNL1       -0.0017
      7 C          12.8930    3.3390   22.8670 C.ar    1  UNL1        0.0198
      8 C          11.6240    3.2760   23.4760 C.ar    1  UNL1        0.1263
      9 C          11.0700    2.0630   23.8680 C.ar    1  UNL1        0.0342
     10 C          11.7810    0.8660   23.6530 C.ar    1  UNL1        0.0452
     11 N          11.2200   -0.4400   24.0530 N.pl3   1  UNL1       -0.3060
     12 N          11.6530    6.1490   23.5160 N.3     1  UNL1        0.0392
     13 O          10.1710    4.6960   25.1450 O.2     1  UNL1       -0.1503
     14 O           9.4350    4.8220   23.0100 O.2     1  UNL1       -0.1503
     15 S          10.6790    4.7780   23.7810 S.O2    1  UNL1        0.0935
@<TRIPOS>BOND
     1     3     2    1
     2     4     3    1
     3     5     4    1
     4     6     5   ar
     5     7     6   ar
     6     8     7   ar
     7     9     8   ar
     8    10     9   ar
     9    10     5   ar
    10    11     1    1
    11    11    10    1
    12    11     2    1
    13    15    14    2
    14    15    13    2
    15    15     8    1
    16    15    12    1
