@<TRIPOS>MOLECULE
*****
 28 32 0 0 0
SMALL
GASTEIGER

@<TRIPOS>ATOM
      1 CL         14.0480   -1.6960   20.8410 Cl      1  UNL1       -0.0823
      2 C          13.1270   -0.7680   21.9960 C.ar    1  UNL1        0.0576
      3 C          13.7770    0.1700   22.7720 C.ar    1  UNL1        0.0145
      4 C          13.0360    1.0200   23.5700 C.ar    1  UNL1        0.0375
      5 C          11.7500   -0.9140   22.0240 C.ar    1  UNL1        0.0121
      6 C          10.9840   -0.0460   22.8030 C.ar    1  UNL1        0.0372
      7 C          11.6550    0.9160   23.5780 C.ar    1  UNL1        0.1365
      8 O          11.0100    1.7970   24.4130 O.3     1  UNL1       -0.4756
      9 C           9.5820    1.9270   24.2440 C.3     1  UNL1        0.2079
     10 C           8.9060    0.5900   24.0270 C.3     1  UNL1        0.0789
     11 C           9.4500   -0.0920   22.7590 C.3     1  UNL1        0.1565
     12 N           8.8140   -1.4100   22.5910 N.am    1  UNL1       -0.2532
     13 C           9.0740   -2.5500   23.4680 C.3     1  UNL1        0.1171
     14 C           8.8380    0.6570   21.5400 C.2     1  UNL1        0.2566
     15 O           9.1380    1.7640   21.1350 O.2     1  UNL1       -0.2720
     16 N           7.8940   -0.2060   20.9630 N.am    1  UNL1       -0.1892
     17 C           7.8930   -1.4550   21.5860 C.2     1  UNL1        0.3174
     18 O           7.1920   -2.4070   21.3010 O.2     1  UNL1       -0.2516
     19 C           7.0010    0.1790   19.8920 C.ar    1  UNL1        0.0813
     20 C           5.8490    0.9690   20.1890 C.ar    1  UNL1        0.0172
     21 C           5.4100    1.2990   21.4990 C.ar    1  UNL1        0.0013
     22 C           4.2980    2.0670   21.6960 C.ar    1  UNL1        0.0000
     23 C           3.5680    2.5490   20.6150 C.ar    1  UNL1        0.0001
     24 C           3.9470    2.2610   19.3350 C.ar    1  UNL1        0.0016
     25 C           5.0920    1.4620   19.0870 C.ar    1  UNL1        0.0204
     26 C           5.5300    1.1250   17.7810 C.ar    1  UNL1        0.0989
     27 N           6.6030    0.3880   17.5190 N.ar    1  UNL1       -0.2410
     28 C           7.3140   -0.0660   18.5600 C.ar    1  UNL1        0.1142
@<TRIPOS>BOND
     1     2     1    1
     2     3     2   ar
     3     4     3   ar
     4     5     2   ar
     5     6     5   ar
     6     7     6   ar
     7     7     4   ar
     8     8     7    1
     9     9     8    1
    10    10     9    1
    11    11    10    1
    12    11     6    1
    13    12    11    1
    14    13    12    1
    15    14    11    1
    16    15    14    2
    17    16    14   am
    18    17    16   am
    19    17    12   am
    20    18    17    2
    21    19    16    1
    22    20    19   ar
    23    21    20   ar
    24    22    21   ar
    25    23    22   ar
    26    24    23   ar
    27    25    24   ar
    28    25    20   ar
    29    26    25   ar
    30    27    26   ar
    31    28    27   ar
    32    28    19   ar
