@<TRIPOS>MOLECULE
*****
 21 23 0 0 0
SMALL
GASTEIGER

@<TRIPOS>ATOM
      1 N           6.5000    0.5960   17.4450 N.ar    1  UNL1       -0.2410
      2 N           9.8920   -0.7160   23.3030 N.ar    1  UNL1       -0.3176
      3 C           5.5040    0.7540   20.0680 C.ar    1  UNL1       -0.0034
      4 C          13.1840    0.5030   23.8960 C.ar    1  UNL1        0.0038
      5 C           9.6340    0.0290   24.4300 C.ar    1  UNL1        0.0763
      6 C           4.9120    1.4530   19.0210 C.ar    1  UNL1        0.0177
      7 C           8.4340   -0.4240   21.3620 C.2     1  UNL1        0.2687
      8 C           6.6190   -0.0490   19.7600 C.ar    1  UNL1        0.0886
      9 C           7.0730   -0.0890   18.4400 C.ar    1  UNL1        0.1151
     10 C          11.8270    0.1930   24.0090 C.ar    1  UNL1        0.0174
     11 C          13.3320   -0.8700   21.9670 C.ar    1  UNL1        0.1416
     12 F          14.1000   -1.4530   21.0080 F       1  UNL1       -0.2041
     13 C          10.7710    0.5950   24.8910 C.ar    1  UNL1        0.0201
     14 C          13.9400   -0.0140   22.8580 C.ar    1  UNL1        0.0297
     15 C          11.9980   -1.2050   22.0130 C.ar    1  UNL1        0.0468
     16 C           4.9910    0.9020   21.4780 C.3     1  UNL1        0.0325
     17 N           7.2670   -0.7730   20.7850 N.am    1  UNL1       -0.1763
     18 O           9.0770    0.5820   21.0620 O.2     1  UNL1       -0.2709
     19 C           8.8850   -1.3620   22.4680 C.3     1  UNL1        0.1939
     20 C           5.4370    1.3500   17.7480 C.ar    1  UNL1        0.0987
     21 C          11.2480   -0.6440   23.0390 C.ar    1  UNL1        0.0626
@<TRIPOS>BOND
     1     5     2   ar
     2     6     3   ar
     3     8     3   ar
     4     9     8   ar
     5     9     1   ar
     6    10     4   ar
     7    12    11    1
     8    13     5   ar
     9    13    10   ar
    10    14    11   ar
    11    14     4   ar
    12    15    11   ar
    13    16     3    1
    14    17     8    1
    15    17     7   am
    16    18     7    2
    17    19     7    1
    18    19     2    1
    19    20     6   ar
    20    20     1   ar
    21    21     2   ar
    22    21    15   ar
    23    21    10   ar
