@<TRIPOS>MOLECULE
*****
 25 28 0 0 0
SMALL
GASTEIGER

@<TRIPOS>ATOM
      1 O           9.3360    1.3260   21.0750 O.2     1  UNL1       -0.2700
      2 C           8.8820    0.2740   21.5090 C.2     1  UNL1        0.2773
      3 C           9.5910   -0.5020   22.6870 C.3     1  UNL1        0.2212
      4 C          11.0930   -0.2510   22.6460 C.ar    1  UNL1        0.0484
      5 C          11.9390   -1.0500   21.8800 C.ar    1  UNL1        0.0130
      6 C          13.2910   -0.7690   21.8510 C.ar    1  UNL1        0.0576
      7 CL         14.3320   -1.7550   20.8580 Cl      1  UNL1       -0.0823
      8 C          13.8350    0.2870   22.5570 C.ar    1  UNL1        0.0145
      9 C          13.0090    1.0850   23.3270 C.ar    1  UNL1        0.0375
     10 C          11.6530    0.8000   23.3870 C.ar    1  UNL1        0.1373
     11 O          10.9400    1.5430   24.2990 O.3     1  UNL1       -0.4756
     12 C           9.5020    1.3910   24.2980 C.3     1  UNL1        0.2088
     13 C           9.0580   -0.0340   24.0450 C.3     1  UNL1        0.0911
     14 O           9.3280   -1.9020   22.5930 O.3     1  UNL1       -0.2115
     15 N           7.7770   -0.3100   21.0000 N.am    1  UNL1       -0.1753
     16 C           7.0020    0.1200   19.9100 C.ar    1  UNL1        0.0925
     17 C           5.8540    0.9320   20.1640 C.ar    1  UNL1        0.0184
     18 C           5.4240    1.3040   21.4630 C.ar    1  UNL1        0.0014
     19 C           4.3100    2.0760   21.6390 C.ar    1  UNL1        0.0000
     20 C           3.5740    2.5160   20.5490 C.ar    1  UNL1        0.0001
     21 C           3.9490    2.1880   19.2770 C.ar    1  UNL1        0.0016
     22 C           5.0990    1.3900   19.0480 C.ar    1  UNL1        0.0204
     23 C           5.5420    1.0200   17.7570 C.ar    1  UNL1        0.0989
     24 N           6.6120    0.2730   17.5210 N.ar    1  UNL1       -0.2410
     25 C           7.3090   -0.1640   18.5790 C.ar    1  UNL1        0.1154
@<TRIPOS>BOND
     1     2     1    2
     2     3     2    1
     3     4     3    1
     4     5     4   ar
     5     6     5   ar
     6     7     6    1
     7     8     6   ar
     8     9     8   ar
     9    10     9   ar
    10    10     4   ar
    11    11    10    1
    12    12    11    1
    13    13    12    1
    14    13     3    1
    15     3    14    1
    16    15     2   am
    17    16    15    1
    18    17    16   ar
    19    18    17   ar
    20    19    18   ar
    21    20    19   ar
    22    21    20   ar
    23    22    21   ar
    24    22    17   ar
    25    23    22   ar
    26    24    23   ar
    27    25    24   ar
    28    25    16   ar
