@<TRIPOS>MOLECULE
*****
 26 28 0 0 0
SMALL
GASTEIGER

@<TRIPOS>ATOM
      1 O           6.1500   -3.2270   20.7340 O.2     1  UNL1       -0.2507
      2 C           6.8570   -2.4690   21.3850 C.2     1  UNL1        0.3238
      3 N           6.9380   -2.5440   22.7300 N.am    1  UNL1       -0.1818
      4 C           7.1960   -3.7620   23.4690 C.3     1  UNL1        0.1656
      5 C           6.2160   -4.8770   23.2910 C.ar    1  UNL1        0.1227
      6 C           5.0870   -5.1670   23.9970 C.ar    1  UNL1        0.1150
      7 N           6.4550   -5.9070   22.4390 N.ar    1  UNL1       -0.1313
      8 N           5.5390   -6.8290   22.6120 N.ar    1  UNL1       -0.0640
      9 N           4.7090   -6.3810   23.5740 N.ar    1  UNL1       -0.2284
     10 C           3.6000   -7.1870   24.0690 C.3     1  UNL1        0.1555
     11 N           7.6670   -1.5510   20.7750 N.am    1  UNL1       -0.2584
     12 C           7.6020   -1.3900   19.3180 C.3     1  UNL1        0.1233
     13 C           6.7340   -0.2330   18.8790 C.ar    1  UNL1        0.0169
     14 C           6.9130    0.3790   17.6510 C.ar    1  UNL1        0.0962
     15 N           6.1710    1.4030   17.2090 N.ar    1  UNL1       -0.2426
     16 C           5.2030    1.8540   18.0170 C.ar    1  UNL1        0.0989
     17 C           4.9510    1.3250   19.2630 C.ar    1  UNL1        0.0204
     18 C           5.7280    0.2650   19.6920 C.ar    1  UNL1        0.0005
     19 C           8.7330   -0.7990   21.4580 C.3     1  UNL1        0.1000
     20 C           9.7280   -1.7020   22.1890 C.3     1  UNL1        0.0479
     21 C          10.9940   -1.0000   22.6180 C.ar    1  UNL1       -0.0205
     22 C          12.2130   -1.3320   22.0410 C.ar    1  UNL1       -0.0042
     23 C          13.3730   -0.6620   22.3980 C.ar    1  UNL1       -0.0003
     24 C          13.3310    0.3360   23.3510 C.ar    1  UNL1       -0.0000
     25 C          12.1300    0.6590   23.9520 C.ar    1  UNL1       -0.0003
     26 C          10.9670   -0.0020   23.5860 C.ar    1  UNL1       -0.0042
@<TRIPOS>BOND
     1     2     1    2
     2     3     2   am
     3     4     3    1
     4     5     4    1
     5     6     5   ar
     6     7     5   ar
     7     8     7   ar
     8     9     6   ar
     9     9     8   ar
    10    10     9    1
    11    11     2   am
    12    12    11    1
    13    13    12    1
    14    14    13   ar
    15    15    14   ar
    16    16    15   ar
    17    17    16   ar
    18    18    17   ar
    19    18    13   ar
    20    19    11    1
    21    20    19    1
    22    21    20    1
    23    22    21   ar
    24    23    22   ar
    25    24    23   ar
    26    25    24   ar
    27    26    25   ar
    28    26    21   ar
