@<TRIPOS>MOLECULE
*****
 21 23 0 0 0
SMALL
GASTEIGER

@<TRIPOS>ATOM
      1 O           8.8590    0.9700   21.1070 O.2     1  UNL1       -0.2726
      2 C           8.3330   -0.0870   21.4540 C.2     1  UNL1        0.2501
      3 C           8.9000   -0.9320   22.5760 C.3     1  UNL1        0.1150
      4 C          10.3420   -0.5830   22.8760 C.ar    1  UNL1        0.0070
      5 C          10.6660    0.4490   23.7400 C.ar    1  UNL1        0.0951
      6 N          11.9200    0.8510   23.9950 N.ar    1  UNL1       -0.2418
      7 C          12.9180    0.2160   23.3700 C.ar    1  UNL1        0.1102
      8 C          11.3910   -1.2410   22.2470 C.ar    1  UNL1        0.0107
      9 C          12.6830   -0.8270   22.4900 C.ar    1  UNL1        0.0765
     10 CL         13.9980   -1.5890   21.6410 Cl      1  UNL1       -0.0806
     11 N           7.2280   -0.5960   20.8690 N.am    1  UNL1       -0.1773
     12 C           6.4730   -0.0450   19.8130 C.ar    1  UNL1        0.0925
     13 C           5.3140    0.7280   20.1330 C.ar    1  UNL1        0.0184
     14 C           4.8230    0.9040   21.4540 C.ar    1  UNL1        0.0014
     15 C           3.7210    1.6750   21.6960 C.ar    1  UNL1        0.0000
     16 C           3.0540    2.3030   20.6520 C.ar    1  UNL1        0.0001
     17 C           3.4840    2.1610   19.3620 C.ar    1  UNL1        0.0016
     18 C           4.6240    1.3710   19.0670 C.ar    1  UNL1        0.0204
     19 C           5.1330    1.2010   17.7550 C.ar    1  UNL1        0.0989
     20 N           6.2080    0.4810   17.4610 N.ar    1  UNL1       -0.2410
     21 C           6.8450   -0.1230   18.4710 C.ar    1  UNL1        0.1154
@<TRIPOS>BOND
     1     2     1    2
     2     3     2    1
     3     4     3    1
     4     5     4   ar
     5     6     5   ar
     6     7     6   ar
     7     8     4   ar
     8     9     8   ar
     9     9     7   ar
    10    10     9    1
    11    11     2   am
    12    12    11    1
    13    13    12   ar
    14    14    13   ar
    15    15    14   ar
    16    16    15   ar
    17    17    16   ar
    18    18    17   ar
    19    18    13   ar
    20    19    18   ar
    21    20    19   ar
    22    21    20   ar
    23    21    12   ar
