@<TRIPOS>MOLECULE
*****
 25 28 0 0 0
SMALL
GASTEIGER

@<TRIPOS>ATOM
      1 O           6.6570    0.9060   16.8100 O.2     1  UNL1       -0.2652
      2 C           6.1290    0.7460   17.9130 C.ar    1  UNL1        0.2794
      3 C           6.5000   -0.2820   18.8320 C.ar    1  UNL1        0.0671
      4 N           5.1660    1.6160   18.3470 N.ar    1  UNL1       -0.2079
      5 C           4.5670    1.5670   19.5960 C.ar    1  UNL1        0.0847
      6 C           3.5830    2.4900   19.9430 C.ar    1  UNL1        0.0192
      7 C           2.9670    2.4020   21.1790 C.ar    1  UNL1        0.0015
      8 C           3.3190    1.4100   22.0680 C.ar    1  UNL1        0.0001
      9 C           4.3060    0.4930   21.7450 C.ar    1  UNL1        0.0016
     10 C           4.9420    0.5570   20.5060 C.ar    1  UNL1        0.0223
     11 C           5.9630   -0.3970   20.0760 C.ar    1  UNL1        0.0598
     12 C           6.3910   -1.5530   20.9430 C.2     1  UNL1        0.2493
     13 O           5.5920   -2.4640   21.1340 O.2     1  UNL1       -0.2699
     14 N           7.6470   -1.5920   21.4420 N.am    1  UNL1       -0.2726
     15 C           8.0650   -2.7230   22.2850 C.3     1  UNL1        0.1151
     16 C           8.7550   -2.2250   23.5430 C.3     1  UNL1        0.1123
     17 N           9.8540   -1.3160   23.1960 N.pl3   1  UNL1       -0.3041
     18 C           9.4650   -0.1820   22.3490 C.3     1  UNL1        0.1123
     19 C           8.7350   -0.6590   21.0950 C.3     1  UNL1        0.1151
     20 C          11.1830   -1.6270   23.4880 C.ar    1  UNL1        0.0479
     21 C          11.5140   -2.2620   24.6910 C.ar    1  UNL1        0.0145
     22 C          12.8360   -2.5870   24.9640 C.ar    1  UNL1        0.0013
     23 C          13.8310   -2.2850   24.0590 C.ar    1  UNL1        0.0001
     24 C          13.5130   -1.6580   22.8700 C.ar    1  UNL1        0.0013
     25 C          12.2000   -1.3230   22.5770 C.ar    1  UNL1        0.0145
@<TRIPOS>BOND
     1     2     1    2
     2     3     2   ar
     3     4     2   ar
     4     5     4   ar
     5     6     5   ar
     6     7     6   ar
     7     8     7   ar
     8     9     8   ar
     9    10     9   ar
    10    10     5   ar
    11    11    10   ar
    12    11     3   ar
    13    12    11    1
    14    13    12    2
    15    14    12   am
    16    15    14    1
    17    16    15    1
    18    17    16    1
    19    18    17    1
    20    19    14    1
    21    19    18    1
    22    20    17    1
    23    21    20   ar
    24    22    21   ar
    25    23    22   ar
    26    24    23   ar
    27    25    24   ar
    28    25    20   ar
