@<TRIPOS>MOLECULE
*****
 25 28 0 0 0
SMALL
GASTEIGER

@<TRIPOS>ATOM
      1 O          10.6380    0.8740   24.9680 O.3     1  UNL1       -0.4756
      2 C           5.3280    1.0520   21.5910 C.ar    1  UNL1        0.0014
      3 C           9.2500   -0.6680   22.8900 C.3     1  UNL1        0.1721
      4 C           4.2610    1.8720   21.8280 C.ar    1  UNL1        0.0000
      5 C           3.5560    2.4340   20.7770 C.ar    1  UNL1        0.0001
      6 C           3.9080    2.1720   19.4840 C.ar    1  UNL1        0.0016
      7 CL         13.9840   -1.8460   21.0290 Cl      1  UNL1       -0.0823
      8 C           5.0130    1.3320   19.1930 C.ar    1  UNL1        0.0204
      9 C           5.4580    1.0670   17.8730 C.ar    1  UNL1        0.0989
     10 C           7.2010   -0.1980   18.6030 C.ar    1  UNL1        0.1154
     11 O           9.2760    1.0630   21.1920 O.2     1  UNL1       -0.2711
     12 C           6.8910   -0.0350   19.9520 C.ar    1  UNL1        0.0925
     13 C           8.7440    0.0370   21.5980 C.2     1  UNL1        0.2653
     14 N           8.8670   -2.0900   22.9310 N.3     1  UNL1       -0.1203
     15 N           7.6720   -0.5460   21.0160 N.am    1  UNL1       -0.1762
     16 C           5.7460    0.7600   20.2670 C.ar    1  UNL1        0.0184
     17 C          10.7680   -0.5250   22.9840 C.ar    1  UNL1        0.0367
     18 C          11.5930   -1.1770   22.0730 C.ar    1  UNL1        0.0119
     19 C          12.9640   -1.0260   22.1720 C.ar    1  UNL1        0.0576
     20 C          13.5440   -0.2390   23.1400 C.ar    1  UNL1        0.0145
     21 C          12.7370    0.4010   24.0610 C.ar    1  UNL1        0.0375
     22 C          11.3640    0.2490   23.9850 C.ar    1  UNL1        0.1363
     23 C           9.3040    1.2420   24.5590 C.3     1  UNL1        0.2077
     24 N           6.5210    0.3340   17.5810 N.ar    1  UNL1       -0.2410
     25 C           8.5230    0.0470   24.0540 C.3     1  UNL1        0.0781
@<TRIPOS>BOND
     1     4     2   ar
     2     5     4   ar
     3     6     5   ar
     4     8     6   ar
     5     9     8   ar
     6    12    10   ar
     7    13    11    2
     8    13     3    1
     9     3    14    1
    10    15    13   am
    11    15    12    1
    12    16     8   ar
    13    16     2   ar
    14    16    12   ar
    15    17     3    1
    16    18    17   ar
    17    19     7    1
    18    19    18   ar
    19    20    19   ar
    20    21    20   ar
    21    22    17   ar
    22    22     1    1
    23    22    21   ar
    24    23     1    1
    25    24    10   ar
    26    24     9   ar
    27    25    23    1
    28    25     3    1
