@<TRIPOS>MOLECULE
*****
 17 18 0 0 0
SMALL
GASTEIGER

@<TRIPOS>ATOM
      1 C           6.7910   -4.3720   20.9250 C.2     1  UNL1        0.2301
      2 C           8.1840   -3.9830   20.4800 C.3     1  UNL1        0.0952
      3 C           7.7210   -4.7380   23.1650 C.ar    1  UNL1        0.0541
      4 C           8.5320   -5.8570   23.3290 C.ar    1  UNL1        0.0149
      5 C           9.5840   -5.8260   24.2290 C.ar    1  UNL1        0.0013
      6 C           9.8360   -4.6970   24.9730 C.ar    1  UNL1        0.0001
      7 C           9.0380   -3.5890   24.8210 C.ar    1  UNL1        0.0013
      8 C           7.9780   -3.6010   23.9240 C.ar    1  UNL1        0.0149
      9 C           5.3080   -5.2530   22.6440 C.3     1  UNL1        0.1272
     10 C           5.1300   -6.7260   22.2690 C.2     1  UNL1        0.0151
     11 C           4.1230   -7.2960   22.9310 C.2     1  UNL1        0.1199
     12 C           5.0560   -5.1980   24.1640 C.3     1  UNL1        0.1805
     13 N           6.6180   -4.7720   22.2320 N.am    1  UNL1       -0.2545
     14 O           5.8610   -4.3410   20.1300 O.2     1  UNL1       -0.2745
     15 O           4.4610   -7.4070   25.5130 O.2     1  UNL1       -0.1685
     16 O           2.5930   -6.0580   24.6520 O.2     1  UNL1       -0.1685
     17 S           3.9380   -6.5430   24.4890 S.O2    1  UNL1        0.0116
@<TRIPOS>BOND
     1     2     1    1
     2     4     3   ar
     3     5     4   ar
     4     6     5   ar
     5     7     6   ar
     6     8     7   ar
     7     8     3   ar
     8    10     9    1
     9    11    10    2
    10    12     9    1
    11     9    13    1
    12    13     1   am
    13    13     3    1
    14    14     1    2
    15    17    16    2
    16    17    15    2
    17    17    11    1
    18    17    12    1
