@<TRIPOS>MOLECULE
*****
 18 19 0 0 0
SMALL
GASTEIGER

@<TRIPOS>ATOM
      1 C           1.5900    3.7560   25.2360 C.ar    1  UNL1        0.1445
      2 C           0.5940    4.4640   25.8950 C.ar    1  UNL1        0.0298
      3 C          -0.7140    4.0000   25.9280 C.ar    1  UNL1        0.0023
      4 C          -1.0350    2.8120   25.2910 C.ar    1  UNL1        0.0003
      5 C          -0.0460    2.1020   24.6220 C.ar    1  UNL1        0.0068
      6 C           1.2690    2.5630   24.5940 C.ar    1  UNL1        0.0824
      7 C           2.3240    1.7490   23.8460 C.2     1  UNL1        0.2670
      8 C           4.4690    1.6460   22.4650 C.3     1  UNL1        0.1201
      9 C           3.9730    1.5800   21.0190 C.3     1  UNL1        0.0499
     10 C           4.9720    1.1050   19.9600 C.ar    1  UNL1       -0.0173
     11 C           5.9820    0.1790   20.2230 C.ar    1  UNL1        0.0165
     12 C           6.8260   -0.1870   19.1740 C.ar    1  UNL1        0.0986
     13 C           5.7380    1.1880   17.7050 C.ar    1  UNL1        0.0986
     14 C           4.8590    1.6100   18.6880 C.ar    1  UNL1        0.0165
     15 F           2.8740    4.2400   25.2290 F       1  UNL1       -0.2040
     16 N           3.4630    2.4020   23.2100 N.am    1  UNL1       -0.2012
     17 N           6.6890    0.3190   17.9560 N.ar    1  UNL1       -0.2423
     18 O           2.1910    0.5700   23.7860 O.2     1  UNL1       -0.2683
@<TRIPOS>BOND
     1     2     1   ar
     2     3     2   ar
     3     4     3   ar
     4     5     4   ar
     5     6     5   ar
     6     6     1   ar
     7     7     6    1
     8     9     8    1
     9    10     9    1
    10    11    10   ar
    11    12    11   ar
    12    14    10   ar
    13    14    13   ar
    14    15     1    1
    15    16     8    1
    16    16     7   am
    17    17    13   ar
    18    17    12   ar
    19    18     7    2
