@<TRIPOS>MOLECULE
*****
 15 16 0 0 0
SMALL
GASTEIGER

@<TRIPOS>ATOM
      1 N          28.3030   21.8000   -2.1810 N.pl3   1  UNL1       -0.2930
      2 C          27.7010   23.3480   -4.0810 C.3     1  UNL1        0.0215
      3 C          28.8290   22.5010   -3.4260 C.3     1  UNL1        0.0743
      4 C          30.0830   23.3830   -3.1950 C.3     1  UNL1        0.0215
      5 C          28.4840   22.5050   -0.8870 C.3     1  UNL1        0.1135
      6 C          28.1560   20.3650   -2.1880 C.ar    1  UNL1        0.1379
      7 C          27.9210   18.3680   -3.4570 C.ar    1  UNL1        0.2014
      8 C          28.1240   18.1140   -1.2120 C.ar    1  UNL1        0.1654
      9 C          28.1800   16.0800    0.3420 C.3     1  UNL1        0.1554
     10 C          28.3250   19.6760    0.4440 C.ar    1  UNL1        0.1260
     11 C          28.2130   19.5420   -1.0000 C.ar    1  UNL1        0.0880
     12 N          27.9960   19.7420   -3.4110 N.ar    1  UNL1       -0.2089
     13 N          27.9820   17.4850   -2.4400 N.ar    1  UNL1       -0.2050
     14 N          28.1940   17.5200    0.0550 N.ar    1  UNL1       -0.2318
     15 N          28.3100   18.4670    1.0470 N.ar    1  UNL1       -0.1662
@<TRIPOS>BOND
     1     3     2    1
     2     3     1    1
     3     4     3    1
     4     5     1    1
     5     6     1    1
     6    11    10   ar
     7    11     8   ar
     8    11     6   ar
     9    12     7   ar
    10    12     6   ar
    11    13     8   ar
    12    13     7   ar
    13    14     9    1
    14    14     8   ar
    15    15    14   ar
    16    15    10   ar
