@<TRIPOS>MOLECULE
*****
 20 22 0 0 0
SMALL
GASTEIGER

@<TRIPOS>ATOM
      1 O           8.9180    0.9060   21.4990 O.2     1  UNL1       -0.2711
      2 C           8.5660   -0.2330   21.8100 C.2     1  UNL1        0.2671
      3 C           9.2030   -0.9750   22.9710 C.3     1  UNL1        0.1150
      4 C          10.6580   -0.6110   23.1600 C.ar    1  UNL1       -0.0121
      5 C          11.0310    0.3940   24.0450 C.ar    1  UNL1       -0.0037
      6 C          12.3520    0.8090   24.1330 C.ar    1  UNL1        0.0006
      7 C          13.3210    0.2330   23.3280 C.ar    1  UNL1        0.0114
      8 C          11.6400   -1.2220   22.3870 C.ar    1  UNL1        0.0076
      9 C          12.9490   -0.7890   22.4750 C.ar    1  UNL1        0.0574
     10 CL         14.1610   -1.5620   21.4910 Cl      1  UNL1       -0.0823
     11 N           7.5950   -0.9090   21.1700 N.am    1  UNL1       -0.0775
     12 N           6.9160   -0.3690   20.0880 N.ar    1  UNL1       -0.1349
     13 C           5.8310    0.4340   20.1760 C.ar    1  UNL1        0.1217
     14 C           5.6410    0.8440   18.8560 C.ar    1  UNL1        0.1237
     15 N           6.6200    0.2720   18.0640 N.ar    1  UNL1       -0.1272
     16 N           7.3940   -0.4660   18.8150 N.ar    1  UNL1       -0.0439
     17 C           5.0080    0.8790   21.2040 C.ar    1  UNL1        0.0224
     18 C           3.9830    1.7620   20.8850 C.ar    1  UNL1        0.0017
     19 C           3.7800    2.1760   19.5670 C.ar    1  UNL1        0.0017
     20 C           4.5980    1.7150   18.5420 C.ar    1  UNL1        0.0226
@<TRIPOS>BOND
     1     2     1    2
     2     3     2    1
     3     4     3    1
     4     5     4   ar
     5     6     5   ar
     6     7     6   ar
     7     8     4   ar
     8     9     8   ar
     9     9     7   ar
    10    10     9    1
    11    11     2   am
    12    12    11    1
    13    13    12   ar
    14    14    13   ar
    15    15    14   ar
    16    16    15   ar
    17    16    12   ar
    18    17    13   ar
    19    18    17   ar
    20    19    18   ar
    21    20    19   ar
    22    20    14   ar
